@<TRIPOS>MOLECULE
MOL
  189   185     1     0     0
SMALL
resp


@<TRIPOS>ATOM
      1 C1          0.0620   -3.6030    5.9490 c3        1 MOL     -0.467967
      2 C2          0.5480   -3.1000    4.6440 c         1 MOL      0.776807
      3 O1          0.5630   -1.8930    4.3660 o         1 MOL     -0.593932
      4 H1         -0.1500   -4.6690    5.8700 hc        1 MOL      0.121321
      5 H2          0.8250   -3.4400    6.7090 hc        1 MOL      0.121321
      6 H3         -0.8480   -3.0730    6.2270 hc        1 MOL      0.121321
      7 N1          1.1020   -4.0140    3.8360 n         1 MOL     -0.566379
      8 C3          1.8090   -3.7950    2.5980 c3        1 MOL      0.380304
      9 C4          1.5710   -5.0020    1.6560 c         1 MOL      0.351697
     10 O2          1.7300   -6.1500    2.0410 o         1 MOL     -0.577349
     11 C5          3.2900   -3.5570    2.8790 c3        1 MOL     -0.414667
     12 C6          4.0980   -3.1030    1.6660 c         1 MOL      0.859400
     13 O3          5.3280   -2.9120    1.9070 o         1 MOL     -0.683190
     14 O4          3.5490   -2.8170    0.5420 o         1 MOL     -0.683190
     15 H4          0.8670   -4.9920    3.9400 hn        1 MOL      0.272909
     16 H5          1.3710   -2.9640    2.0290 h1        1 MOL     -0.079803
     17 H6          3.7640   -4.4440    3.3140 hc        1 MOL      0.078111
     18 H7          3.1920   -2.7070    3.5570 hc        1 MOL      0.078111
     19 N2          1.1760   -4.8280    0.4100 n         1 MOL      0.059178
     20 C7          0.9490   -5.8450   -0.5960 c3        1 MOL     -0.208897
     21 C8          1.7920   -5.5310   -1.8950 c         1 MOL      0.439551
     22 O5          1.5160   -6.0740   -2.9520 o         1 MOL     -0.549297
     23 C9         -0.5840   -6.0890   -0.9130 c3        1 MOL      0.261931
     24 C10        -1.2660   -4.7020   -1.2420 c3        1 MOL      0.056559
     25 C11        -1.3960   -6.7500    0.1840 c3        1 MOL     -0.207071
     26 C12        -2.5980   -5.0010   -2.0270 c3        1 MOL     -0.228768
     27 H8          0.8120   -3.8910    0.2870 hn        1 MOL      0.041401
     28 H9          1.3550   -6.7800   -0.1950 h1        1 MOL      0.106350
     29 H10        -0.7650   -6.7730   -1.7360 hc        1 MOL     -0.026906
     30 H11        -0.5900   -4.2790   -1.9770 hc        1 MOL      0.040905
     31 H12        -1.3910   -3.9900   -0.4240 hc        1 MOL      0.040905
     32 H13        -2.3620   -7.1100   -0.1760 hc        1 MOL      0.023754
     33 H14        -0.8120   -7.5480    0.6370 hc        1 MOL      0.023754
     34 H15        -1.6650   -6.0060    0.9300 hc        1 MOL      0.023754
     35 H16        -3.2610   -5.4430   -1.2840 hc        1 MOL      0.057321
     36 H17        -3.0640   -4.0700   -2.3390 hc        1 MOL      0.057321
     37 H18        -2.3830   -5.6190   -2.8990 hc        1 MOL      0.057321
     38 N3          2.6860   -4.5300   -1.8490 n         1 MOL     -0.300153
     39 C13         3.5020   -4.0790   -3.0560 c3        1 MOL      0.005026
     40 C14         4.9230   -3.4610   -2.7880 c         1 MOL      0.398419
     41 O6          5.7490   -3.3100   -3.6910 o         1 MOL     -0.536863
     42 C15         2.6800   -3.0990   -3.8780 c3        1 MOL     -0.297950
     43 C16         2.4820   -1.7630   -3.3300 c         1 MOL      0.894885
     44 O7          3.0070   -1.4080   -2.2660 o         1 MOL     -0.749685
     45 O8          1.6800   -1.0370   -3.9560 o         1 MOL     -0.749685
     46 H19         2.9380   -4.1130   -0.9640 hn        1 MOL      0.171435
     47 H20         3.7250   -4.9490   -3.6680 h1        1 MOL      0.098988
     48 H21         1.6850   -3.5350   -3.9540 hc        1 MOL      0.086008
     49 H22         3.1680   -3.0540   -4.8540 hc        1 MOL      0.086008
     50 N4          5.3150   -3.1660   -1.5360 n         1 MOL     -0.229277
     51 C17         6.6560   -2.7760   -1.1160 c3        1 MOL     -0.168736
     52 C18         7.1080   -1.3900   -1.6110 c         1 MOL      0.471953
     53 O9          8.2670   -1.1600   -1.7410 o         1 MOL     -0.576035
     54 H23         4.5710   -3.0930   -0.8670 hn        1 MOL      0.126315
     55 H24         7.3650   -3.5320   -1.4730 h1        1 MOL      0.104712
     56 H25         6.6910   -2.7830   -0.0290 h1        1 MOL      0.104712
     57 N5          6.1960   -0.4930   -2.0440 n         1 MOL     -0.105181
     58 C19         6.5340    0.8570   -2.4620 c3        1 MOL     -0.056686
     59 C20         7.0220    1.8140   -1.3430 c         1 MOL      0.562262
     60 O10         7.8170    2.7030   -1.6330 o         1 MOL     -0.593340
     61 C21         5.3650    1.5970   -3.1550 c3        1 MOL     -0.296462
     62 C22         4.1310    1.8580   -2.2970 c         1 MOL      0.746815
     63 O11         4.1220    1.4740   -1.1350 o         1 MOL     -0.697521
     64 O12         3.1030    2.4610   -2.8110 o         1 MOL     -0.697521
     65 H26         5.2240   -0.7480   -2.0550 hn        1 MOL      0.173861
     66 H27         7.3990    0.7870   -3.1300 h1        1 MOL      0.091907
     67 H28         5.0820    0.9080   -3.9540 hc        1 MOL      0.081639
     68 H29         5.6380    2.5820   -3.5340 hc        1 MOL      0.081639
     69 N6          6.7150    1.6020   -0.0540 n         1 MOL     -0.311298
     70 C23         7.0990    2.5310    1.0670 c3        1 MOL     -0.115388
     71 C24         6.0200    3.5190    1.4030 c         1 MOL      0.473454
     72 O13         6.3220    4.4180    2.2660 o         1 MOL     -0.641049
     73 H30         5.8640    1.0630    0.0930 hn        1 MOL      0.135732
     74 H31         7.9920    3.1080    0.8200 h1        1 MOL      0.101886
     75 H32         7.3250    2.0100    1.9960 h1        1 MOL      0.101886
     76 N7          4.8360    3.4550    0.8960 n         1 MOL     -0.196528
     77 C25         3.6810    4.2770    1.2720 c3        1 MOL     -0.092674
     78 C26         2.4470    3.3720    1.4870 c         1 MOL      0.577856
     79 O14         2.4950    2.1820    1.2350 o         1 MOL     -0.563131
     80 C27         3.4100    5.2140    0.1320 c3        1 MOL      0.120208
     81 C28         4.6130    6.1910   -0.1480 c3        1 MOL     -0.332493
     82 C29         4.3150    7.3780   -1.0830 c         1 MOL      0.691660
     83 N8          5.0690    7.5700   -2.1440 n         1 MOL     -0.824164
     84 O15         3.3660    8.1780   -1.1020 o         1 MOL     -0.599239
     85 H33         4.7140    2.7800    0.1520 hn        1 MOL      0.255746
     86 H34         3.9760    4.9470    2.0800 h1        1 MOL      0.080820
     87 H35         2.5840    5.8540    0.4340 hc        1 MOL      0.009207
     88 H36         3.0240    4.6150   -0.6990 hc        1 MOL      0.009207
     89 H37         5.3870    5.6570   -0.6880 hc        1 MOL      0.112697
     90 H38         4.9560    6.6840    0.7560 hc        1 MOL      0.112697
     91 H39         5.8650    7.0010   -2.3810 hn        1 MOL      0.366646
     92 H40         4.6400    8.1760   -2.8200 hn        1 MOL      0.366646
     93 N9          1.3410    3.9230    2.0170 n         1 MOL     -0.495572
     94 C30         0.0320    3.2500    2.3580 c3        1 MOL     -0.002299
     95 C31        -1.0690    3.5470    1.4090 c         1 MOL      0.546542
     96 O16        -1.5860    4.6280    1.3380 o         1 MOL     -0.589387
     97 C32        -0.4060    3.5820    3.7940 c3        1 MOL      0.184599
     98 C33        -1.3390    2.4730    4.2430 c3        1 MOL     -0.364838
     99 C34         0.7590    3.4430    4.7470 c3        1 MOL     -0.364838
    100 H41         1.4560    4.8380    2.4270 hn        1 MOL      0.295413
    101 H42         0.2450    2.1880    2.2030 h1        1 MOL      0.160079
    102 H43        -0.9040    4.5540    3.8020 hc        1 MOL      0.006184
    103 H44        -2.2210    2.3220    3.6220 hc        1 MOL      0.086019
    104 H45        -0.9200    1.4720    4.2210 hc        1 MOL      0.086019
    105 H46        -1.6320    2.5720    5.2860 hc        1 MOL      0.086019
    106 H47         0.3430    3.4390    5.7500 hc        1 MOL      0.086019
    107 H48         1.2540    2.4850    4.5520 hc        1 MOL      0.086019
    108 H49         1.5940    4.1310    4.6010 hc        1 MOL      0.086019
    109 N10        -1.5120    2.6020    0.6180 n         1 MOL     -0.281815
    110 C35        -2.7340    2.6940   -0.2200 c3        1 MOL      0.039217
    111 C36        -4.0090    2.5240    0.5890 c         1 MOL      0.240486
    112 O17        -3.9950    1.9790    1.7360 o         1 MOL     -0.308303
    113 C37        -2.5500    1.6110   -1.3500 c3        1 MOL     -0.111614
    114 C38        -3.6620    1.6760   -2.3670 c         1 MOL      0.611255
    115 N11        -3.7190    2.5710   -3.2470 n         1 MOL     -0.661053
    116 O18        -4.6370    0.9630   -2.2400 o         1 MOL     -0.509965
    117 H50        -1.0610    1.6950    0.6140 hn        1 MOL      0.175534
    118 H51        -2.7130    3.6780   -0.6820 h1        1 MOL      0.073506
    119 H52        -2.5510    0.6090   -0.9190 hc        1 MOL      0.070982
    120 H53        -1.5980    1.7040   -1.8910 hc        1 MOL      0.070982
    121 H54        -3.0600    3.3300   -3.3590 hn        1 MOL      0.331341
    122 H55        -4.4800    2.5500   -3.9110 hn        1 MOL      0.331341
    123 N12        -5.1300    2.7970   -0.0170 n         1 MOL     -0.109284
    124 C39        -6.4470    2.5870    0.5480 c3        1 MOL      0.051331
    125 C40        -6.8050    1.1050    0.9180 c         1 MOL      0.394936
    126 O19        -7.4810    0.7880    1.8290 o         1 MOL     -0.545695
    127 C41        -7.5660    3.2830   -0.2090 c3        1 MOL     -0.167177
    128 C42        -7.5330    3.1560   -1.7170 ca        1 MOL     -0.037169
    129 C43        -6.8750    4.0200   -2.5710 ca        1 MOL     -0.061685
    130 C44        -8.0830    1.9880   -2.3890 ca        1 MOL     -0.061685
    131 C45        -6.8170    3.8240   -3.9900 ca        1 MOL     -0.405752
    132 C46        -7.8310    1.6980   -3.7260 ca        1 MOL     -0.405752
    133 C47        -7.2270    2.6070   -4.5760 ca        1 MOL      0.520735
    134 O20        -6.9250    2.3400   -5.8510 oh        1 MOL     -0.590516
    135 H56        -5.0510    2.9690   -1.0100 hn        1 MOL      0.060444
    136 H57        -6.5000    3.0340    1.5410 h1        1 MOL      0.060480
    137 H58        -7.4830    4.3670   -0.0980 hc        1 MOL      0.077658
    138 H59        -8.5510    2.9770    0.1350 hc        1 MOL      0.077658
    139 H60        -6.4760    4.9080   -2.1100 ha        1 MOL      0.115773
    140 H61        -8.6120    1.2030   -1.8730 ha        1 MOL      0.115773
    141 H62        -6.2840    4.5630   -4.5630 ha        1 MOL      0.167705
    142 H63        -8.2020    0.7420   -4.0690 ha        1 MOL      0.167705
    143 H64        -7.1930    1.4440   -6.0810 ho        1 MOL      0.441870
    144 N13        -6.2350    0.1480    0.1550 n         1 MOL     -0.019346
    145 C48        -6.4010   -1.2630    0.4990 c3        1 MOL     -0.217368
    146 C49        -5.4510   -1.7480    1.5700 c         1 MOL      0.410210
    147 O21        -5.7090   -2.7720    2.2090 o         1 MOL     -0.544470
    148 C50        -6.2060   -2.1430   -0.7220 c3        1 MOL     -0.020708
    149 C51        -7.0040   -1.7140   -1.9400 c3        1 MOL     -0.332059
    150 C52        -7.2470   -2.9650   -2.8440 c         1 MOL      0.725298
    151 O22        -6.3650   -3.3340   -3.6930 o         1 MOL     -0.743731
    152 O23        -8.2990   -3.6320   -2.7670 o         1 MOL     -0.743731
    153 H65        -5.7050    0.4560   -0.6480 hn        1 MOL      0.207264
    154 H66        -7.4200   -1.4520    0.8360 h1        1 MOL      0.154718
    155 H67        -6.4580   -3.1670   -0.4690 hc        1 MOL      0.070374
    156 H68        -5.1570   -2.0450   -1.0040 hc        1 MOL      0.070374
    157 H69        -6.5410   -0.8870   -2.4700 hc        1 MOL      0.063728
    158 H70        -8.0010   -1.3270   -1.6960 hc        1 MOL      0.063728
    159 N14        -4.4670   -0.9500    1.9610 n         1 MOL     -0.001178
    160 C53        -3.4960   -1.1970    2.9430 c3        1 MOL     -0.071711
    161 C54        -3.9500   -0.4910    4.2620 c         1 MOL      0.410554
    162 O24        -4.0080   -1.1410    5.3390 o         1 MOL     -0.555477
    163 C55        -2.1000   -0.7350    2.4050 c3        1 MOL      0.043796
    164 C56        -1.5990   -1.6120    1.2190 c3        1 MOL      0.032795
    165 C57        -0.3140   -1.0300    0.5890 c         1 MOL      0.757651
    166 O25         0.3900   -1.8280   -0.0910 o         1 MOL     -0.754160
    167 O26         0.0620    0.0750    0.8570 o         1 MOL     -0.754160
    168 H71        -4.4360   -0.0450    1.5180 hn        1 MOL     -0.058431
    169 H72        -3.3570   -2.2530    3.1620 h1        1 MOL      0.064999
    170 H73        -1.3310   -0.7280    3.1850 hc        1 MOL      0.022939
    171 H74        -2.2190    0.2640    1.9740 hc        1 MOL      0.022939
    172 H75        -2.3590   -1.7800    0.4580 hc        1 MOL     -0.041678
    173 H76        -1.3630   -2.5880    1.6300 hc        1 MOL     -0.041678
    174 N15        -4.4870    0.7100    4.1020 n         1 MOL     -0.062480
    175 C58        -4.9230    1.5440    5.2730 c3        1 MOL     -0.293395
    176 H77        -5.7570    1.0550    5.7760 h1        1 MOL      0.096787
    177 H78        -4.0930    1.6540    5.9710 h1        1 MOL      0.096787
    178 H79        -5.2360    2.5270    4.9220 h1        1 MOL      0.096787
    179 H80        -4.5170    1.1990    3.2140 hn        1 MOL      0.137053
    180 Ca1         2.5770   -0.3100    0.0770 Ca        1 MOL      1.791210
    181 O27         2.1890   -0.5610    2.7970 oh        1 MOL     -0.853972
    182 O28         1.3370    0.9040   -1.9860 oh        1 MOL     -0.853972
    183 H81         2.9300   -0.3870    3.3860 ho        1 MOL      0.401780
    184 H82         1.7740    1.6450   -2.4080 ho        1 MOL      0.401780
    185 H83         1.5510   -0.9980    3.3480 ho        1 MOL      0.401780
    186 H84         1.3130    0.2190   -2.6580 ho        1 MOL      0.401780
    187 O29         5.1100   -0.1280    1.6980 oh        1 MOL     -0.853972
    188 H85         5.1680   -1.0750    1.8490 ho        1 MOL      0.401780
    189 H86         5.3260    0.2580    2.5490 ho        1 MOL      0.401780
@<TRIPOS>BOND
     1    1    2 1   
     2    1    4 1   
     3    1    5 1   
     4    1    6 1   
     5    2    3 2   
     6    2    7 1   
     7    7    8 1   
     8    7   15 1   
     9    8    9 1   
    10    8   11 1   
    11    8   16 1   
    12    9   10 2   
    13    9   19 1   
    14   11   12 1   
    15   11   17 1   
    16   11   18 1   
    17   12   13 1   
    18   12   14 1   
    19   19   20 1   
    20   19   27 1   
    21   20   21 1   
    22   20   23 1   
    23   20   28 1   
    24   21   22 2   
    25   21   38 1   
    26   23   24 1   
    27   23   25 1   
    28   23   29 1   
    29   24   26 1   
    30   24   30 1   
    31   24   31 1   
    32   25   32 1   
    33   25   33 1   
    34   25   34 1   
    35   26   35 1   
    36   26   36 1   
    37   26   37 1   
    38   38   39 1   
    39   38   46 1   
    40   39   40 1   
    41   39   42 1   
    42   39   47 1   
    43   40   41 2   
    44   40   50 1   
    45   42   43 1   
    46   42   48 1   
    47   42   49 1   
    48   43   44 1   
    49   43   45 1   
    50   50   51 1   
    51   50   54 1   
    52   51   52 1   
    53   51   55 1   
    54   51   56 1   
    55   52   53 2   
    56   52   57 1   
    57   57   58 1   
    58   57   65 1   
    59   58   59 1   
    60   58   61 1   
    61   58   66 1   
    62   59   60 2   
    63   59   69 1   
    64   61   62 1   
    65   61   67 1   
    66   61   68 1   
    67   62   63 1   
    68   62   64 1   
    69   69   70 1   
    70   69   73 1   
    71   70   71 1   
    72   70   74 1   
    73   70   75 1   
    74   71   72 2   
    75   71   76 1   
    76   76   77 1   
    77   76   85 1   
    78   77   78 1   
    79   77   80 1   
    80   77   86 1   
    81   78   79 2   
    82   78   93 1   
    83   80   81 1   
    84   80   87 1   
    85   80   88 1   
    86   81   82 1   
    87   81   89 1   
    88   81   90 1   
    89   82   83 1   
    90   82   84 2   
    91   83   91 1   
    92   83   92 1   
    93   93   94 1   
    94   93  100 1   
    95   94   95 1   
    96   94   97 1   
    97   94  101 1   
    98   95   96 2   
    99   95  109 1   
   100   97   98 1   
   101   97   99 1   
   102   97  102 1   
   103   98  103 1   
   104   98  104 1   
   105   98  105 1   
   106   99  106 1   
   107   99  107 1   
   108   99  108 1   
   109  109  110 1   
   110  109  117 1   
   111  110  111 1   
   112  110  113 1   
   113  110  118 1   
   114  111  112 2   
   115  111  123 1   
   116  113  114 1   
   117  113  119 1   
   118  113  120 1   
   119  114  115 1   
   120  114  116 2   
   121  115  121 1   
   122  115  122 1   
   123  123  124 1   
   124  123  135 1   
   125  124  125 1   
   126  124  127 1   
   127  124  136 1   
   128  125  126 2   
   129  125  144 1   
   130  127  128 1   
   131  127  137 1   
   132  127  138 1   
   133  128  129 ar  
   134  128  130 ar  
   135  129  131 ar  
   136  129  139 1   
   137  130  132 ar  
   138  130  140 1   
   139  131  133 ar  
   140  131  141 1   
   141  132  133 ar  
   142  132  142 1   
   143  133  134 1   
   144  134  143 1   
   145  144  145 1   
   146  144  153 1   
   147  145  146 1   
   148  145  148 1   
   149  145  154 1   
   150  146  147 2   
   151  146  159 1   
   152  148  149 1   
   153  148  155 1   
   154  148  156 1   
   155  149  150 1   
   156  149  157 1   
   157  149  158 1   
   158  150  151 1   
   159  150  152 1   
   160  159  160 1   
   161  159  168 1   
   162  160  161 1   
   163  160  163 1   
   164  160  169 1   
   165  161  162 2   
   166  161  174 1   
   167  163  164 1   
   168  163  170 1   
   169  163  171 1   
   170  164  165 1   
   171  164  172 1   
   172  164  173 1   
   173  165  166 1   
   174  165  167 1   
   175  174  175 1   
   176  174  179 1   
   177  175  176 1   
   178  175  177 1   
   179  175  178 1   
   180  181  183 1   
   181  181  185 1   
   182  182  184 1   
   183  182  186 1   
   184  187  188 1   
   185  187  189 1   
@<TRIPOS>SUBSTRUCTURE
     1 MOL         1 TEMP              0 ****  ****    0 ROOT
