@<TRIPOS>MOLECULE
MOL
  189   185     1     0     0
SMALL
resp


@<TRIPOS>ATOM
      1 C1          0.1710    2.8890    5.1180 c3        1 MOL     -0.379600
      2 C2         -0.3010    2.6690    3.7560 c         1 MOL      0.811648
      3 O1          0.3290    3.0920    2.7610 o         1 MOL     -0.670042
      4 H1          1.2410    3.0960    5.1020 hc        1 MOL      0.094494
      5 H2         -0.3570    3.7380    5.5530 hc        1 MOL      0.094494
      6 H3         -0.0170    1.9970    5.7170 hc        1 MOL      0.094494
      7 N1         -1.4260    1.9730    3.6660 n         1 MOL     -0.668262
      8 C3         -2.1080    1.5270    2.4450 c3        1 MOL      0.325069
      9 C4         -2.8400    2.7540    1.8510 c         1 MOL      0.349971
     10 O2         -3.9580    3.0230    2.2730 o         1 MOL     -0.546569
     11 C5         -3.0850    0.3650    2.7120 c3        1 MOL     -0.279550
     12 C6         -3.8050   -0.0210    1.4320 c         1 MOL      0.866464
     13 O3         -3.2530    0.1600    0.2920 o         1 MOL     -0.733269
     14 O4         -4.9800   -0.5560    1.5200 o         1 MOL     -0.733269
     15 H4         -1.9240    1.7350    4.5120 hn        1 MOL      0.329966
     16 H5         -1.4370    1.1840    1.6540 h1        1 MOL     -0.035496
     17 H6         -3.8070    0.7340    3.4440 hc        1 MOL      0.051164
     18 H7         -2.5290   -0.4830    3.0900 hc        1 MOL      0.051164
     19 N2         -2.2770    3.3970    0.8260 n         1 MOL      0.017895
     20 C7         -2.8400    4.6650    0.3800 c3        1 MOL      0.048481
     21 C8         -3.5610    4.5140   -0.9900 c         1 MOL      0.459745
     22 O5         -4.1800    5.4930   -1.4430 o         1 MOL     -0.580902
     23 C9         -1.7620    5.7750    0.3440 c3        1 MOL     -0.197799
     24 C10        -1.3790    6.3660    1.7490 c3        1 MOL      0.163324
     25 C11        -2.4890    7.2670    2.3080 c3        1 MOL     -0.261517
     26 C12        -2.8160    8.5630    1.5840 c3        1 MOL      0.183638
     27 N3         -3.9770    9.2980    2.2290 n4        1 MOL     -0.319800
     28 H8         -1.3300    3.2870    0.5050 hn        1 MOL      0.186596
     29 H9         -3.6860    4.9890    0.9930 h1        1 MOL      0.062583
     30 H10        -2.1400    6.6340   -0.2140 hc        1 MOL      0.057093
     31 H11        -0.8380    5.4220   -0.1190 hc        1 MOL      0.057093
     32 H12        -0.4660    6.9720    1.7390 hc        1 MOL      0.014821
     33 H13        -1.3090    5.4800    2.3840 hc        1 MOL      0.014821
     34 H14        -2.0700    7.5590    3.2640 hc        1 MOL      0.060679
     35 H15        -3.4260    6.7150    2.4280 hc        1 MOL      0.060679
     36 H16        -3.0410    8.3430    0.5410 hx        1 MOL      0.042310
     37 H17        -1.9350    9.1960    1.6400 hx        1 MOL      0.042310
     38 H18        -3.7970    9.2570    3.2180 hn        1 MOL      0.314566
     39 H19        -4.2350   10.1770    1.8100 hn        1 MOL      0.314566
     40 H20        -4.8020    8.7130    2.2260 hn        1 MOL      0.314566
     41 N4         -3.6470    3.2710   -1.4930 n         1 MOL     -0.345371
     42 C13        -4.4980    2.9050   -2.7170 c3        1 MOL      0.233816
     43 C14        -5.6390    1.9600   -2.3420 c         1 MOL      0.332359
     44 O6         -6.4990    1.6420   -3.1750 o         1 MOL     -0.508837
     45 C15        -3.5230    2.3160   -3.7900 c3        1 MOL     -0.341816
     46 C16        -2.5060    1.3510   -3.2870 c         1 MOL      0.993271
     47 O7         -2.9790    0.4250   -2.6110 o         1 MOL     -0.809227
     48 O8         -1.3170    1.3450   -3.6690 o         1 MOL     -0.809227
     49 H21        -3.2780    2.5480   -0.8880 hn        1 MOL      0.048652
     50 H22        -4.9780    3.7450   -3.2130 h1        1 MOL      0.077958
     51 H23        -3.0200    3.1990   -4.1700 hc        1 MOL      0.059640
     52 H24        -4.0900    1.8170   -4.5680 hc        1 MOL      0.059640
     53 N5         -5.7730    1.6130   -1.0290 n         1 MOL     -0.222557
     54 C17        -6.9910    0.9830   -0.3810 c3        1 MOL     -0.271998
     55 C18        -7.0870   -0.4860   -0.7890 c         1 MOL      0.629879
     56 O9         -8.1410   -1.1340   -0.5750 o         1 MOL     -0.636666
     57 H25        -5.0210    1.9260   -0.4330 hn        1 MOL      0.210349
     58 H26        -7.9110    1.5020   -0.6700 h1        1 MOL      0.128914
     59 H27        -6.8620    0.9930    0.6930 h1        1 MOL      0.128914
     60 N6         -6.0440   -1.0330   -1.3290 n         1 MOL     -0.361712
     61 C19        -6.0350   -2.4340   -1.7870 c3        1 MOL     -0.016849
     62 C20        -5.9240   -3.5110   -0.6560 c         1 MOL      0.409299
     63 O10        -5.8160   -4.6820   -1.0970 o         1 MOL     -0.518298
     64 C21        -5.0290   -2.6520   -2.9270 c3        1 MOL     -0.454992
     65 C22        -3.5590   -2.6690   -2.4780 c         1 MOL      0.805263
     66 O11        -2.7050   -2.5030   -3.3490 o         1 MOL     -0.706902
     67 O12        -3.1930   -2.7670   -1.2920 o         1 MOL     -0.706902
     68 H28        -5.1910   -0.5050   -1.2700 hn        1 MOL      0.397638
     69 H29        -7.0200   -2.5880   -2.2200 h1        1 MOL      0.133275
     70 H30        -5.2560   -1.9230   -3.7100 hc        1 MOL      0.145989
     71 H31        -5.1340   -3.6470   -3.3690 hc        1 MOL      0.145989
     72 N7         -5.8440   -3.2240    0.6590 n         1 MOL     -0.255929
     73 C23        -5.8440   -4.2140    1.7460 c3        1 MOL     -0.087186
     74 C24        -4.5160   -5.0010    1.8960 c         1 MOL      0.474181
     75 O13        -4.4160   -6.0780    2.5000 o         1 MOL     -0.549668
     76 H32        -5.6950   -2.2650    0.9400 hn        1 MOL      0.292754
     77 H33        -6.6780   -4.9110    1.6770 h1        1 MOL      0.082388
     78 H34        -6.1070   -3.6370    2.6330 h1        1 MOL      0.082388
     79 N8         -3.4690   -4.3390    1.3450 n         1 MOL     -0.223364
     80 C25        -2.0890   -4.7680    1.2620 c3        1 MOL     -0.046910
     81 C26        -1.1400   -3.6600    1.4000 c         1 MOL      0.678592
     82 O14        -1.4730   -2.5390    0.9710 o         1 MOL     -0.709581
     83 C27        -1.8280   -5.6670    0.1060 c3        1 MOL      0.553499
     84 C28        -2.0460   -7.1270    0.3900 c3        1 MOL     -0.389126
     85 O15        -2.5520   -5.3290   -1.1080 oh        1 MOL     -0.705958
     86 H35        -3.7360   -3.5970    0.7150 hn        1 MOL      0.071655
     87 H36        -1.9060   -5.3700    2.1620 h1        1 MOL      0.038098
     88 H37        -0.7520   -5.6100   -0.0750 h1        1 MOL     -0.077448
     89 H38        -2.9720   -4.4730   -0.9630 ho        1 MOL      0.511474
     90 H39        -3.0910   -7.2950    0.6300 hc        1 MOL      0.089000
     91 H40        -1.7260   -7.7710   -0.4330 hc        1 MOL      0.089000
     92 H41        -1.4620   -7.4740    1.2430 hc        1 MOL      0.089000
     93 N9          0.0350   -3.9060    1.9400 n         1 MOL     -0.678142
     94 C29         1.0990   -2.8790    1.9660 c3        1 MOL     -0.075962
     95 C30         2.2980   -3.4460    1.1690 c         1 MOL      0.595873
     96 O16         2.7550   -4.5360    1.4400 o         1 MOL     -0.556971
     97 C31         1.4370   -2.6630    3.5160 c3        1 MOL      0.171204
     98 C32         0.1700   -2.0680    4.3150 c3        1 MOL      0.111916
     99 C33         2.5760   -1.6070    3.5460 c3        1 MOL     -0.351126
    100 C34         0.2890   -2.0950    5.8310 c3        1 MOL     -0.449050
    101 H42         0.1900   -4.7980    2.3930 hn        1 MOL      0.343477
    102 H43         0.7770   -1.9660    1.4690 h1        1 MOL      0.132026
    103 H44         1.7360   -3.5580    4.0750 hc        1 MOL      0.027695
    104 H45        -0.8270   -2.4790    4.1010 hc        1 MOL      0.036542
    105 H46         0.0990   -1.0170    4.0330 hc        1 MOL      0.036542
    106 H47         3.3970   -2.0890    3.0150 hc        1 MOL      0.056973
    107 H48         2.3150   -0.8030    2.8570 hc        1 MOL      0.056973
    108 H49         2.8180   -1.3750    4.5810 hc        1 MOL      0.056973
    109 H50         0.4590   -3.1530    6.0700 hc        1 MOL      0.111879
    110 H51         1.1320   -1.4780    6.1110 hc        1 MOL      0.111879
    111 H52        -0.6520   -1.6510    6.1620 hc        1 MOL      0.111879
    112 N10         2.8310   -2.6060    0.2570 n         1 MOL     -0.219057
    113 C35         4.0900   -2.8220   -0.4270 c3        1 MOL      0.039918
    114 C36         5.2060   -2.0700    0.2840 c         1 MOL      0.187771
    115 O17         5.0180   -1.0250    0.8810 o         1 MOL     -0.108188
    116 C37         3.9990   -2.3570   -1.8840 c3        1 MOL      0.085456
    117 C38         2.9350   -3.1900   -2.6090 c3        1 MOL     -0.325593
    118 O18         3.6890   -0.9850   -1.9760 oh        1 MOL     -0.343443
    119 H53         2.4610   -1.6940    0.0360 hn        1 MOL      0.232853
    120 H54         4.3960   -3.8630   -0.4100 h1        1 MOL      0.049784
    121 H55         5.0010   -2.4940   -2.3100 h1        1 MOL      0.016359
    122 H56         3.3390   -0.8030   -2.8500 ho        1 MOL      0.296360
    123 H57         1.9670   -2.9830   -2.1370 hc        1 MOL      0.100722
    124 H58         2.9670   -2.9510   -3.6670 hc        1 MOL      0.100722
    125 H59         3.1310   -4.2590   -2.5490 hc        1 MOL      0.100722
    126 N11         6.4160   -2.5280   -0.0800 n         1 MOL     -0.236182
    127 C39         7.7240   -1.8120    0.1230 c3        1 MOL     -0.347926
    128 C40         7.7110   -0.2720   -0.2520 c         1 MOL      0.412796
    129 O19         8.1460    0.5370    0.5640 o         1 MOL     -0.477097
    130 C41         8.8670   -2.5410   -0.6400 c3        1 MOL      0.454667
    131 C42         9.0280   -3.9620   -0.1390 c3        1 MOL     -0.483164
    132 O20         8.4940   -2.4160   -1.9970 oh        1 MOL     -0.592633
    133 H60         6.4460   -3.3980   -0.6010 hn        1 MOL      0.285878
    134 H61         7.9080   -1.8030    1.2000 h1        1 MOL      0.169926
    135 H62         9.8140   -2.0140   -0.6020 h1        1 MOL      0.021930
    136 H63         9.1410   -1.7670   -2.2850 ho        1 MOL      0.367642
    137 H64         9.6530   -4.4810   -0.8720 hc        1 MOL      0.138703
    138 H65         9.3550   -3.9820    0.9000 hc        1 MOL      0.138703
    139 H66         8.1130   -4.5390   -0.2750 hc        1 MOL      0.138703
    140 N12         7.0290    0.1580   -1.3080 n         1 MOL     -0.181181
    141 C43         6.6630    1.5540   -1.6700 c3        1 MOL     -0.210891
    142 C44         5.9320    2.3270   -0.5660 c         1 MOL      0.371000
    143 O21         6.2400    3.4980   -0.2660 o         1 MOL     -0.526627
    144 C45         5.9670    1.7300   -2.9860 c3        1 MOL     -0.189715
    145 C46         5.8160    3.2400   -3.3410 c3        1 MOL      0.072346
    146 C47         5.0190    3.3490   -4.6590 c3        1 MOL     -0.033957
    147 C48         3.6000    2.9160   -4.3650 c3        1 MOL      0.249377
    148 N13         2.9020    3.2440   -5.6070 n4        1 MOL     -0.487420
    149 H67         6.6260   -0.5130   -1.9510 hn        1 MOL      0.199347
    150 H68         7.6300    2.0490   -1.6960 h1        1 MOL      0.147191
    151 H69         5.0150    1.2030   -2.9360 hc        1 MOL      0.058540
    152 H70         6.5560    1.3020   -3.7900 hc        1 MOL      0.058540
    153 H71         6.7580    3.7880   -3.4450 hc        1 MOL      0.040337
    154 H72         5.2530    3.7900   -2.5920 hc        1 MOL      0.040337
    155 H73         5.4800    2.8760   -5.5320 hc        1 MOL      0.018513
    156 H74         5.0330    4.4280   -4.8220 hc        1 MOL      0.018513
    157 H75         3.1960    3.4070   -3.4800 hx        1 MOL      0.004631
    158 H76         3.4780    1.8410   -4.2440 hx        1 MOL      0.004631
    159 H77         3.1050    4.1430   -6.0320 hn        1 MOL      0.352180
    160 H78         3.1150    2.5020   -6.2570 hn        1 MOL      0.352180
    161 H79         1.8970    3.2190   -5.5120 hn        1 MOL      0.352180
    162 N14         4.9500    1.7270    0.1020 n         1 MOL      0.227747
    163 C49         4.1670    2.3390    1.1510 c3        1 MOL     -0.167762
    164 C50         4.9250    2.4290    2.4300 c         1 MOL      0.446855
    165 O22         4.9910    3.5040    3.0980 o         1 MOL     -0.537705
    166 C51         2.8490    1.5670    1.2900 c3        1 MOL      0.021126
    167 C52         1.9720    1.9120    0.0800 c3        1 MOL     -0.312102
    168 C53         0.6980    0.9950   -0.1090 c         1 MOL      0.868577
    169 O23        -0.4310    1.4680   -0.4550 o         1 MOL     -0.852680
    170 O24         0.8720   -0.2320   -0.1670 o         1 MOL     -0.852680
    171 H80         4.8240    0.7400   -0.0690 hn        1 MOL     -0.015803
    172 H81         3.9580    3.3780    0.8740 h1        1 MOL      0.064665
    173 H82         2.3410    1.8580    2.2120 hc        1 MOL      0.060596
    174 H83         3.0400    0.4970    1.4020 hc        1 MOL      0.060596
    175 H84         2.5260    1.8290   -0.8590 hc        1 MOL      0.079343
    176 H85         1.7450    2.9730    0.1130 hc        1 MOL      0.079343
    177 N15         5.5890    1.3180    2.7600 n         1 MOL     -0.153469
    178 C54         6.6200    1.1580    3.8580 c3        1 MOL     -0.245434
    179 H86         7.6180    1.2900    3.4410 h1        1 MOL      0.108131
    180 H87         6.4480    1.9080    4.6300 h1        1 MOL      0.108131
    181 H88         6.5370    0.1620    4.2930 h1        1 MOL      0.108131
    182 H89         5.3890    0.4800    2.2350 hn        1 MOL      0.087119
    183 Ca1        -1.3680   -0.8770   -1.1240 Ca        1 MOL      1.840644
    184 O25         0.5050   -0.5820   -3.3590 oh        1 MOL     -0.809921
    185 H90        -0.0550    0.1380   -3.6540 ho        1 MOL      0.378635
    186 H91         1.3850   -0.3380   -3.6610 ho        1 MOL      0.378635
    187 O26        -0.4550   -3.2010   -2.2170 oh        1 MOL     -0.809921
    188 H92         0.1540   -3.4110   -2.9340 ho        1 MOL      0.378635
    189 H93        -1.1620   -3.8410   -2.3130 ho        1 MOL      0.378635
@<TRIPOS>BOND
     1    1    2 1   
     2    1    4 1   
     3    1    5 1   
     4    1    6 1   
     5    2    3 2   
     6    2    7 1   
     7    7    8 1   
     8    7   15 1   
     9    8    9 1   
    10    8   11 1   
    11    8   16 1   
    12    9   10 2   
    13    9   19 1   
    14   11   12 1   
    15   11   17 1   
    16   11   18 1   
    17   12   13 1   
    18   12   14 1   
    19   19   20 1   
    20   19   28 1   
    21   20   21 1   
    22   20   23 1   
    23   20   29 1   
    24   21   22 2   
    25   21   41 1   
    26   23   24 1   
    27   23   30 1   
    28   23   31 1   
    29   24   25 1   
    30   24   32 1   
    31   24   33 1   
    32   25   26 1   
    33   25   34 1   
    34   25   35 1   
    35   26   27 1   
    36   26   36 1   
    37   26   37 1   
    38   27   38 1   
    39   27   39 1   
    40   27   40 1   
    41   41   42 1   
    42   41   49 1   
    43   42   43 1   
    44   42   45 1   
    45   42   50 1   
    46   43   44 2   
    47   43   53 1   
    48   45   46 1   
    49   45   51 1   
    50   45   52 1   
    51   46   47 1   
    52   46   48 1   
    53   53   54 1   
    54   53   57 1   
    55   54   55 1   
    56   54   58 1   
    57   54   59 1   
    58   55   56 2   
    59   55   60 1   
    60   60   61 1   
    61   60   68 1   
    62   61   62 1   
    63   61   64 1   
    64   61   69 1   
    65   62   63 2   
    66   62   72 1   
    67   64   65 1   
    68   64   70 1   
    69   64   71 1   
    70   65   66 1   
    71   65   67 1   
    72   72   73 1   
    73   72   76 1   
    74   73   74 1   
    75   73   77 1   
    76   73   78 1   
    77   74   75 2   
    78   74   79 1   
    79   79   80 1   
    80   79   86 1   
    81   80   81 1   
    82   80   83 1   
    83   80   87 1   
    84   81   82 2   
    85   81   93 1   
    86   83   84 1   
    87   83   85 1   
    88   83   88 1   
    89   84   90 1   
    90   84   91 1   
    91   84   92 1   
    92   85   89 1   
    93   93   94 1   
    94   93  101 1   
    95   94   95 1   
    96   94   97 1   
    97   94  102 1   
    98   95   96 2   
    99   95  112 1   
   100   97   98 1   
   101   97   99 1   
   102   97  103 1   
   103   98  100 1   
   104   98  104 1   
   105   98  105 1   
   106   99  106 1   
   107   99  107 1   
   108   99  108 1   
   109  100  109 1   
   110  100  110 1   
   111  100  111 1   
   112  112  113 1   
   113  112  119 1   
   114  113  114 1   
   115  113  116 1   
   116  113  120 1   
   117  114  115 2   
   118  114  126 1   
   119  116  117 1   
   120  116  118 1   
   121  116  121 1   
   122  117  123 1   
   123  117  124 1   
   124  117  125 1   
   125  118  122 1   
   126  126  127 1   
   127  126  133 1   
   128  127  128 1   
   129  127  130 1   
   130  127  134 1   
   131  128  129 2   
   132  128  140 1   
   133  130  131 1   
   134  130  132 1   
   135  130  135 1   
   136  131  137 1   
   137  131  138 1   
   138  131  139 1   
   139  132  136 1   
   140  140  141 1   
   141  140  149 1   
   142  141  142 1   
   143  141  144 1   
   144  141  150 1   
   145  142  143 2   
   146  142  162 1   
   147  144  145 1   
   148  144  151 1   
   149  144  152 1   
   150  145  146 1   
   151  145  153 1   
   152  145  154 1   
   153  146  147 1   
   154  146  155 1   
   155  146  156 1   
   156  147  148 1   
   157  147  157 1   
   158  147  158 1   
   159  148  159 1   
   160  148  160 1   
   161  148  161 1   
   162  162  163 1   
   163  162  171 1   
   164  163  164 1   
   165  163  166 1   
   166  163  172 1   
   167  164  165 2   
   168  164  177 1   
   169  166  167 1   
   170  166  173 1   
   171  166  174 1   
   172  167  168 1   
   173  167  175 1   
   174  167  176 1   
   175  168  169 1   
   176  168  170 1   
   177  177  178 1   
   178  177  182 1   
   179  178  179 1   
   180  178  180 1   
   181  178  181 1   
   182  184  185 1   
   183  184  186 1   
   184  187  188 1   
   185  187  189 1   
@<TRIPOS>SUBSTRUCTURE
     1 MOL         1 TEMP              0 ****  ****    0 ROOT
