@<TRIPOS>MOLECULE
MOL
  175   173     1     0     0
SMALL
resp


@<TRIPOS>ATOM
      1 C1          0.5530    4.5610    5.1180 c3        1 MOL     -0.367909
      2 C2          0.0000    4.3660    3.6990 c         1 MOL      0.732816
      3 O1          0.7130    4.5340    2.6820 o         1 MOL     -0.591513
      4 H1         -0.2140    4.2970    5.8450 hc        1 MOL      0.084488
      5 H2          1.4230    3.9200    5.2600 hc        1 MOL      0.084488
      6 H3          0.8420    5.6030    5.2560 hc        1 MOL      0.084488
      7 N1         -1.2670    4.1390    3.6180 n         1 MOL     -0.571573
      8 C3         -1.9490    3.7880    2.3640 c3        1 MOL      0.120519
      9 C4         -2.1920    4.9040    1.4120 c         1 MOL      0.644268
     10 O2         -2.6650    5.9950    1.7910 o         1 MOL     -0.590108
     11 C5         -3.2870    3.1160    2.7480 c3        1 MOL     -0.320076
     12 C6         -4.1590    2.8290    1.5750 c         1 MOL      0.653154
     13 O3         -3.7030    2.1200    0.6210 o         1 MOL     -0.623499
     14 O4         -5.3040    3.2890    1.5430 o         1 MOL     -0.623499
     15 H4         -1.8020    4.0510    4.4710 hn        1 MOL      0.319134
     16 H5         -1.3940    2.9850    1.8740 h1        1 MOL      0.049566
     17 H6         -3.8210    3.6700    3.5200 hc        1 MOL      0.065631
     18 H7         -3.1350    2.1190    3.1760 hc        1 MOL      0.065631
     19 N2         -1.8960    4.6450    0.1170 n         1 MOL     -0.557588
     20 C7         -2.0070    5.5390   -0.9820 c3        1 MOL      0.354033
     21 C8         -3.0430    5.0940   -2.0080 c         1 MOL      0.431741
     22 O5         -3.1880    5.8530   -2.9560 o         1 MOL     -0.580365
     23 C9         -0.6560    5.7660   -1.6480 c3        1 MOL     -0.199879
     24 H8         -1.4390    3.7730   -0.1020 hn        1 MOL      0.323290
     25 H9         -2.3110    6.5270   -0.6360 h1        1 MOL     -0.003061
     26 H10        -0.3860    4.8370   -2.1340 hc        1 MOL      0.042813
     27 H11        -0.6140    6.6380   -2.3110 hc        1 MOL      0.042813
     28 H12         0.0860    5.9380   -0.8700 hc        1 MOL      0.042813
     29 N3         -3.7990    3.9980   -1.8380 n         1 MOL     -0.269002
     30 C10        -4.6870    3.4180   -2.8300 c3        1 MOL     -0.028035
     31 C11        -5.8150    2.3290   -2.3200 c         1 MOL      0.442940
     32 O6         -6.5960    1.8690   -3.1400 o         1 MOL     -0.545193
     33 C12        -3.8070    2.7190   -3.9150 c3        1 MOL      0.001374
     34 C13        -2.9480    1.6080   -3.2730 c         1 MOL      0.732316
     35 O7         -1.8700    1.3690   -3.8060 o         1 MOL     -0.692291
     36 O8         -3.4530    0.9290   -2.3370 o         1 MOL     -0.692291
     37 H13        -3.5980    3.3860   -1.0660 hn        1 MOL      0.082486
     38 H14        -5.2260    4.2240   -3.3330 h1        1 MOL      0.073850
     39 H15        -3.1510    3.4110   -4.4390 hc        1 MOL     -0.013738
     40 H16        -4.5090    2.3910   -4.6850 hc        1 MOL     -0.013738
     41 N4         -5.9660    2.0360   -1.0440 n         1 MOL     -0.222719
     42 C14        -7.1120    1.2340   -0.5110 c3        1 MOL     -0.324479
     43 C15        -7.1680   -0.3160   -0.9620 c         1 MOL      0.644227
     44 O9         -8.1810   -0.8980   -0.9470 o         1 MOL     -0.623947
     45 H17        -5.4290    2.5080   -0.3200 hn        1 MOL      0.227085
     46 H18        -8.0080    1.7230   -0.8870 h1        1 MOL      0.133854
     47 H19        -6.9850    1.1200    0.5670 h1        1 MOL      0.133854
     48 N5         -6.0960   -0.8790   -1.5090 n         1 MOL     -0.328107
     49 C16        -6.0380   -2.2410   -2.1650 c3        1 MOL      0.283934
     50 C17        -6.2220   -3.4760   -1.2620 c         1 MOL      0.247205
     51 O10        -6.0400   -4.6510   -1.7210 o         1 MOL     -0.479790
     52 C18        -4.8640   -2.4390   -3.1620 c3        1 MOL     -0.467775
     53 C19        -3.4640   -2.3860   -2.5190 c         1 MOL      0.952677
     54 N6         -2.5270   -3.1590   -2.9940 n         1 MOL     -0.760419
     55 O11        -3.2700   -1.7870   -1.5090 o         1 MOL     -0.897327
     56 H20        -5.4260   -0.2050   -1.8570 hn        1 MOL      0.188604
     57 H21        -6.9730   -2.2240   -2.7380 h1        1 MOL      0.063880
     58 H22        -4.7460   -1.6750   -3.9400 hc        1 MOL      0.110222
     59 H23        -4.8730   -3.4310   -3.6000 hc        1 MOL      0.110222
     60 H24        -2.6600   -3.7240   -3.8180 hn        1 MOL      0.343076
     61 H25        -1.5980   -2.9720   -2.6350 hn        1 MOL      0.343076
     62 N7         -6.3890   -3.2070    0.0640 n         1 MOL     -0.112044
     63 C20        -6.5570   -4.2260    1.0880 c3        1 MOL     -0.257529
     64 C21        -5.2620   -4.6160    1.7930 c         1 MOL      0.607651
     65 O12        -5.3470   -5.3820    2.7750 o         1 MOL     -0.593495
     66 H26        -6.4450   -2.2270    0.3200 hn        1 MOL      0.195866
     67 H27        -6.8770   -5.1220    0.5420 h1        1 MOL      0.120847
     68 H28        -7.2660   -3.9600    1.8640 h1        1 MOL      0.120847
     69 N8         -4.1750   -4.0370    1.3410 n         1 MOL     -0.468693
     70 C22        -2.7830   -4.4580    1.7460 c3        1 MOL     -0.009148
     71 C23        -1.7420   -3.2990    1.8920 c         1 MOL      0.574846
     72 O13        -1.7790   -2.3610    1.0640 o         1 MOL     -0.503175
     73 C24        -2.1980   -5.3610    0.7180 c3        1 MOL      0.388780
     74 C25        -2.8030   -6.7540    0.7380 c3        1 MOL     -0.567058
     75 O14        -2.5430   -4.8890   -0.5540 oh        1 MOL     -0.540903
     76 H29        -4.2680   -3.6000    0.4430 hn        1 MOL      0.345339
     77 H30        -2.7420   -4.8410    2.7630 h1        1 MOL      0.069915
     78 H31        -1.1130   -5.4060    0.8180 h1        1 MOL      0.018595
     79 H32        -1.9950   -4.1350   -0.7800 ho        1 MOL      0.349573
     80 H33        -3.8680   -6.7830    0.5190 hc        1 MOL      0.148461
     81 H34        -2.2020   -7.2460   -0.0170 hc        1 MOL      0.148461
     82 H35        -2.6600   -7.2250    1.7180 hc        1 MOL      0.148461
     83 N9         -0.6630   -3.4040    2.6810 n         1 MOL     -0.638032
     84 C26         0.5150   -2.5160    2.4540 c3        1 MOL      0.075865
     85 C27         1.2510   -2.8380    1.1840 c         1 MOL      0.598443
     86 O15         1.5750   -4.0430    1.0050 o         1 MOL     -0.598382
     87 C28         1.3930   -2.4560    3.7550 c3        1 MOL     -0.005680
     88 C29         0.6610   -1.6710    4.8920 c3        1 MOL      0.230427
     89 C30         2.8190   -1.9090    3.5460 c3        1 MOL     -0.160181
     90 C31         1.2630   -1.8480    6.3270 c3        1 MOL     -0.312785
     91 H36        -0.4840   -4.3640    2.9370 hn        1 MOL      0.289340
     92 H37        -0.0550   -1.5970    2.3790 h1        1 MOL      0.080041
     93 H38         1.4820   -3.4710    4.1320 hc        1 MOL      0.034675
     94 H39        -0.3700   -2.0310    4.9600 hc        1 MOL     -0.036542
     95 H40         0.4920   -0.6150    4.6480 hc        1 MOL     -0.036542
     96 H41         3.3790   -2.0370    4.4800 hc        1 MOL      0.030722
     97 H42         3.3010   -2.3230    2.6600 hc        1 MOL      0.030722
     98 H43         2.7670   -0.8260    3.4010 hc        1 MOL      0.030722
     99 H44         0.4710   -1.5010    6.9910 hc        1 MOL      0.066987
    100 H45         1.5050   -2.8640    6.6210 hc        1 MOL      0.066987
    101 H46         2.1770   -1.2590    6.3520 hc        1 MOL      0.066987
    102 N10         1.5500   -1.8460    0.3290 n         1 MOL     -0.321932
    103 C32         2.4300   -2.0440   -0.8200 c3        1 MOL      0.012768
    104 C33         3.8630   -1.6670   -0.4400 c         1 MOL      0.562526
    105 O16         4.0550   -0.7960    0.3840 o         1 MOL     -0.370215
    106 C34         1.8870   -1.1920   -1.9910 c3        1 MOL     -0.349500
    107 C35         0.4320   -1.4420   -2.1630 c         1 MOL      0.842307
    108 O17        -0.3930   -0.6450   -1.6480 o         1 MOL     -0.673372
    109 O18         0.1220   -2.4350   -2.8040 o         1 MOL     -0.673372
    110 H47         1.2130   -0.9200    0.5480 hn        1 MOL      0.162682
    111 H48         2.4000   -3.1150   -1.0480 h1        1 MOL      0.069908
    112 H49         2.3580   -1.5810   -2.9020 hc        1 MOL      0.079810
    113 H50         2.1980   -0.1700   -1.8010 hc        1 MOL      0.079810
    114 N11         4.8470   -2.2480   -1.1210 n         1 MOL     -0.709198
    115 C36         6.2800   -1.9600   -0.8440 c3        1 MOL      0.472715
    116 C37         6.6860   -0.4380   -0.8190 c         1 MOL      0.325381
    117 O19         7.2650   -0.0170    0.1630 o         1 MOL     -0.488315
    118 C38         7.0550   -2.8170   -1.8090 c3        1 MOL     -0.247881
    119 C39         8.5790   -2.5170   -1.8250 ca        1 MOL      0.088664
    120 C40         9.3010   -2.7760   -0.5950 ca        1 MOL     -0.163869
    121 C41         9.2500   -2.1250   -2.9880 ca        1 MOL     -0.163869
    122 C42        10.6790   -2.5700   -0.5310 ca        1 MOL     -0.111856
    123 C43        10.6090   -1.7790   -2.9050 ca        1 MOL     -0.111856
    124 C44        11.3160   -1.9790   -1.6520 ca        1 MOL     -0.125916
    125 H51         4.5360   -2.7870   -1.9300 hn        1 MOL      0.351899
    126 H52         6.5140   -2.3410    0.1460 h1        1 MOL      0.014194
    127 H53         6.6230   -2.7470   -2.8110 hc        1 MOL      0.065767
    128 H54         6.8400   -3.8360   -1.5200 hc        1 MOL      0.065767
    129 H55         8.7860   -3.1950    0.2610 ha        1 MOL      0.126417
    130 H56         8.6900   -1.9160   -3.8870 ha        1 MOL      0.126417
    131 H57        11.2190   -2.7180    0.3980 ha        1 MOL      0.117416
    132 H58        11.0610   -1.3640   -3.7920 ha        1 MOL      0.117416
    133 H59        12.3350   -1.6290   -1.5620 ha        1 MOL      0.105674
    134 N12         6.2920    0.4580   -1.8210 n         1 MOL     -0.086383
    135 C45         6.5700    1.8910   -1.6860 c3        1 MOL      0.081275
    136 C46         5.8190    2.6010   -0.5250 c         1 MOL      0.325162
    137 O20         6.2800    3.6030   -0.0530 o         1 MOL     -0.488843
    138 C47         6.2340    2.4750   -3.1240 c3        1 MOL     -0.234752
    139 C48         6.2210    1.2780   -4.0400 c3        1 MOL      0.108374
    140 C49         5.6840    0.2190   -3.1040 c3        1 MOL     -0.184519
    141 H60         7.6400    1.9420   -1.4580 h1        1 MOL      0.062229
    142 H61         5.2150    2.8540   -3.1950 hc        1 MOL      0.095273
    143 H62         6.9410    3.2740   -3.3390 hc        1 MOL      0.095273
    144 H63         5.6080    1.4090   -4.9330 hc        1 MOL     -0.000388
    145 H64         7.2140    0.9970   -4.3970 hc        1 MOL     -0.000388
    146 H65         4.6150    0.3790   -2.9140 h1        1 MOL      0.086667
    147 H66         5.8800   -0.7380   -3.5960 h1        1 MOL      0.086667
    148 N13         4.6930    2.0630   -0.0460 n         1 MOL     -0.127592
    149 C50         4.1030    2.7010    1.1610 c3        1 MOL     -0.090099
    150 C51         4.9120    2.3270    2.3660 c         1 MOL      0.389600
    151 O21         5.0610    3.2380    3.2490 o         1 MOL     -0.564930
    152 C52         2.6730    2.1460    1.3350 c3        1 MOL      0.156164
    153 C53         1.8490    2.0920   -0.0090 c3        1 MOL     -0.080250
    154 C54         0.4170    1.6010    0.2500 c         1 MOL      0.564771
    155 O22        -0.5430    2.0650   -0.4430 o         1 MOL     -0.678809
    156 O23         0.0960    0.7770    1.1500 o         1 MOL     -0.678809
    157 H67         4.4660    1.0850   -0.2060 hn        1 MOL      0.016226
    158 H68         4.1070    3.7940    1.1480 h1        1 MOL      0.140876
    159 H69         2.1780    2.6310    2.1700 hc        1 MOL     -0.024999
    160 H70         2.6750    1.0920    1.6200 hc        1 MOL     -0.024999
    161 H71         2.3810    1.5050   -0.7490 hc        1 MOL      0.046213
    162 H72         1.9360    3.1360   -0.3150 hc        1 MOL      0.046213
    163 N14         5.5570    1.1760    2.4780 n         1 MOL      0.020973
    164 C55         6.4000    0.7310    3.5350 c3        1 MOL     -0.179976
    165 H73         5.7860    0.4090    4.3760 h1        1 MOL      0.067066
    166 H74         7.0080   -0.1050    3.1880 h1        1 MOL      0.067066
    167 H75         7.0500    1.5470    3.8510 h1        1 MOL      0.067066
    168 H76         5.2540    0.4460    1.8570 hn        1 MOL      0.091009
    169 Ca1        -2.2790    0.1860   -0.1820 Ca        1 MOL      1.734481
    170 O24        -1.7500    0.0730    2.9320 oh        1 MOL     -0.826975
    171 H77        -1.5130    0.1700    3.8530 ho        1 MOL      0.401658
    172 H78        -0.9370    0.2070    2.4540 ho        1 MOL      0.401658
    173 O25        -4.2520   -0.6800    1.5810 oh        1 MOL     -0.826975
    174 H79        -5.1080   -1.0660    1.7950 ho        1 MOL      0.401658
    175 H80        -3.9640   -0.2900    2.4090 ho        1 MOL      0.401658
@<TRIPOS>BOND
     1    1    2 1   
     2    1    4 1   
     3    1    5 1   
     4    1    6 1   
     5    2    3 2   
     6    2    7 1   
     7    7    8 1   
     8    7   15 1   
     9    8    9 1   
    10    8   11 1   
    11    8   16 1   
    12    9   10 2   
    13    9   19 1   
    14   11   12 1   
    15   11   17 1   
    16   11   18 1   
    17   12   13 1   
    18   12   14 1   
    19   19   20 1   
    20   19   24 1   
    21   20   21 1   
    22   20   23 1   
    23   20   25 1   
    24   21   22 2   
    25   21   29 1   
    26   23   26 1   
    27   23   27 1   
    28   23   28 1   
    29   29   30 1   
    30   29   37 1   
    31   30   31 1   
    32   30   33 1   
    33   30   38 1   
    34   31   32 2   
    35   31   41 1   
    36   33   34 1   
    37   33   39 1   
    38   33   40 1   
    39   34   35 1   
    40   34   36 1   
    41   41   42 1   
    42   41   45 1   
    43   42   43 1   
    44   42   46 1   
    45   42   47 1   
    46   43   44 2   
    47   43   48 1   
    48   48   49 1   
    49   48   56 1   
    50   49   50 1   
    51   49   52 1   
    52   49   57 1   
    53   50   51 2   
    54   50   62 1   
    55   52   53 1   
    56   52   58 1   
    57   52   59 1   
    58   53   54 1   
    59   53   55 2   
    60   54   60 1   
    61   54   61 1   
    62   62   63 1   
    63   62   66 1   
    64   63   64 1   
    65   63   67 1   
    66   63   68 1   
    67   64   65 2   
    68   64   69 1   
    69   69   70 1   
    70   69   76 1   
    71   70   71 1   
    72   70   73 1   
    73   70   77 1   
    74   71   72 2   
    75   71   83 1   
    76   73   74 1   
    77   73   75 1   
    78   73   78 1   
    79   74   80 1   
    80   74   81 1   
    81   74   82 1   
    82   75   79 1   
    83   83   84 1   
    84   83   91 1   
    85   84   85 1   
    86   84   87 1   
    87   84   92 1   
    88   85   86 2   
    89   85  102 1   
    90   87   88 1   
    91   87   89 1   
    92   87   93 1   
    93   88   90 1   
    94   88   94 1   
    95   88   95 1   
    96   89   96 1   
    97   89   97 1   
    98   89   98 1   
    99   90   99 1   
   100   90  100 1   
   101   90  101 1   
   102  102  103 1   
   103  102  110 1   
   104  103  104 1   
   105  103  106 1   
   106  103  111 1   
   107  104  105 2   
   108  104  114 1   
   109  106  107 1   
   110  106  112 1   
   111  106  113 1   
   112  107  108 1   
   113  107  109 1   
   114  114  115 1   
   115  114  125 1   
   116  115  116 1   
   117  115  118 1   
   118  115  126 1   
   119  116  117 2   
   120  116  134 1   
   121  118  119 1   
   122  118  127 1   
   123  118  128 1   
   124  119  120 ar  
   125  119  121 ar  
   126  120  122 ar  
   127  120  129 1   
   128  121  123 ar  
   129  121  130 1   
   130  122  124 ar  
   131  122  131 1   
   132  123  124 ar  
   133  123  132 1   
   134  124  133 1   
   135  134  135 1   
   136  134  140 1   
   137  135  136 1   
   138  135  138 1   
   139  135  141 1   
   140  136  137 2   
   141  136  148 1   
   142  138  139 1   
   143  138  142 1   
   144  138  143 1   
   145  139  140 1   
   146  139  144 1   
   147  139  145 1   
   148  140  146 1   
   149  140  147 1   
   150  148  149 1   
   151  148  157 1   
   152  149  150 1   
   153  149  152 1   
   154  149  158 1   
   155  150  151 2   
   156  150  163 1   
   157  152  153 1   
   158  152  159 1   
   159  152  160 1   
   160  153  154 1   
   161  153  161 1   
   162  153  162 1   
   163  154  155 1   
   164  154  156 1   
   165  163  164 1   
   166  163  168 1   
   167  164  165 1   
   168  164  166 1   
   169  164  167 1   
   170  170  171 1   
   171  170  172 1   
   172  173  174 1   
   173  173  175 1   
@<TRIPOS>SUBSTRUCTURE
     1 MOL         1 TEMP              0 ****  ****    0 ROOT
