@<TRIPOS>MOLECULE
MOL
  189   185     1     0     0
SMALL
resp


@<TRIPOS>ATOM
      1 C1          2.8190   -3.1910    6.2550 c3        1 MOL     -0.360988
      2 C2          2.4730   -2.9660    4.7360 c         1 MOL      0.692331
      3 O1          1.5550   -2.3110    4.3310 o         1 MOL     -0.599363
      4 H1          3.4350   -2.3660    6.6130 hc        1 MOL      0.087847
      5 H2          1.8980   -3.2340    6.8360 hc        1 MOL      0.087847
      6 H3          3.3650   -4.1270    6.3690 hc        1 MOL      0.087847
      7 N1          3.2120   -3.6210    3.8800 n         1 MOL     -0.587281
      8 C3          3.3700   -3.4390    2.4590 c3        1 MOL      0.326135
      9 C4          3.1190   -4.6860    1.6930 c         1 MOL      0.355759
     10 O2          3.5890   -5.7430    2.0820 o         1 MOL     -0.599302
     11 C5          4.7850   -2.8160    2.2340 c3        1 MOL     -0.060711
     12 C6          4.9800   -2.6610    0.7390 c         1 MOL      0.634417
     13 O3          4.1320   -1.9820    0.1880 o         1 MOL     -0.633189
     14 O4          5.9180   -3.2420    0.2150 o         1 MOL     -0.633189
     15 H4          3.9310   -4.1460    4.3570 hn        1 MOL      0.286468
     16 H5          2.6480   -2.6800    2.1670 h1        1 MOL      0.064635
     17 H6          5.5560   -3.4230    2.6880 hc        1 MOL     -0.047380
     18 H7          4.8530   -1.8630    2.7480 hc        1 MOL     -0.047380
     19 N2          2.6220   -4.4270    0.5190 n         1 MOL      0.077919
     20 C7          2.4420   -5.4240   -0.5700 c3        1 MOL     -0.042704
     21 C8          3.1840   -4.9510   -1.8350 c         1 MOL      0.535340
     22 O5          3.8230   -5.7820   -2.4260 o         1 MOL     -0.592456
     23 C9          0.9440   -5.6800   -0.6860 c3        1 MOL      0.210068
     24 C10         0.4050   -6.3300    0.6870 c3        1 MOL      0.206968
     25 C11         0.5540   -6.4830   -1.8520 c3        1 MOL     -0.366113
     26 C12        -1.0410   -6.6440    0.5990 c3        1 MOL     -0.227367
     27 H8          2.2340   -3.4950    0.3950 hn        1 MOL     -0.082791
     28 H9          2.8790   -6.3700   -0.2350 h1        1 MOL      0.044582
     29 H10         0.4600   -4.7080   -0.8140 hc        1 MOL     -0.011364
     30 H11         0.6320   -5.6070    1.4690 hc        1 MOL     -0.051553
     31 H12         0.9550   -7.2370    0.9170 hc        1 MOL     -0.051553
     32 H13         0.8800   -6.0270   -2.7860 hc        1 MOL      0.073605
     33 H14         0.9300   -7.4930   -1.7290 hc        1 MOL      0.073605
     34 H15        -0.5380   -6.5000   -1.9030 hc        1 MOL      0.073605
     35 H16        -1.3300   -6.8430    1.6370 hc        1 MOL      0.040055
     36 H17        -1.5900   -5.7620    0.2710 hc        1 MOL      0.040055
     37 H18        -1.2850   -7.4620   -0.0820 hc        1 MOL      0.040055
     38 N3          3.2820   -3.6570   -2.1350 n         1 MOL     -0.147825
     39 C13         3.5730   -3.2120   -3.5420 c3        1 MOL     -0.025698
     40 C14         4.9290   -2.4940   -3.6950 c         1 MOL      0.421079
     41 O6          5.2870   -2.1860   -4.8640 o         1 MOL     -0.547722
     42 C15         2.4340   -2.3700   -4.1310 c3        1 MOL     -0.184711
     43 C16         2.2950   -1.0680   -3.4380 c         1 MOL      0.899753
     44 O7          3.0310   -0.6840   -2.5260 o         1 MOL     -0.758666
     45 O8          1.3450   -0.3960   -3.9070 o         1 MOL     -0.758666
     46 H19         2.9770   -2.9830   -1.4610 hn        1 MOL      0.022930
     47 H20         3.7250   -4.1100   -4.1310 h1        1 MOL      0.076280
     48 H21         1.4770   -2.8920   -4.0270 hc        1 MOL      0.054971
     49 H22         2.6160   -2.1970   -5.1950 hc        1 MOL      0.054971
     50 N4          5.6020   -2.2700   -2.5020 n         1 MOL     -0.187799
     51 C17         6.9330   -1.6400   -2.5190 c3        1 MOL     -0.082533
     52 C18         6.9650   -0.0950   -2.6330 c         1 MOL      0.479515
     53 O9          8.0570    0.4390   -2.9170 o         1 MOL     -0.611417
     54 H23         5.1740   -2.6210   -1.6660 hn        1 MOL      0.148221
     55 H24         7.5560   -2.1650   -3.2410 h1        1 MOL      0.073456
     56 H25         7.3540   -1.8530   -1.5390 h1        1 MOL      0.073456
     57 N5          5.8750    0.6910   -2.4500 n         1 MOL     -0.169977
     58 C19         5.8380    2.1240   -2.8560 c3        1 MOL      0.021827
     59 C20         6.1370    3.1370   -1.6880 c         1 MOL      0.334430
     60 O10         6.0050    4.3580   -1.8350 o         1 MOL     -0.514080
     61 C21         4.4660    2.3940   -3.4750 c3        1 MOL     -0.313596
     62 C22         3.3750    2.5620   -2.4940 c         1 MOL      0.815116
     63 O11         3.4570    2.1730   -1.2960 o         1 MOL     -0.710043
     64 O12         2.3150    3.0850   -2.9690 o         1 MOL     -0.710043
     65 H26         4.9730    0.2560   -2.3170 hn        1 MOL      0.137665
     66 H27         6.5410    2.2670   -3.6800 h1        1 MOL      0.106425
     67 H28         4.1860    1.5790   -4.1340 hc        1 MOL      0.102495
     68 H29         4.6510    3.3330   -3.9900 hc        1 MOL      0.102495
     69 N6          6.3380    2.6430   -0.4550 n         1 MOL     -0.218161
     70 C23         6.6060    3.4320    0.7260 c3        1 MOL     -0.326887
     71 C24         5.4450    4.0500    1.3820 c         1 MOL      0.441423
     72 O13         5.6220    4.6090    2.4620 o         1 MOL     -0.595141
     73 H30         6.2190    1.6490   -0.3700 hn        1 MOL      0.187063
     74 H31         7.2770    4.2480    0.4650 h1        1 MOL      0.160337
     75 H32         7.1750    2.7740    1.3850 h1        1 MOL      0.160337
     76 N7          4.1770    4.0200    0.8280 n         1 MOL      0.091237
     77 C25         2.9580    4.5310    1.5270 c3        1 MOL     -0.187401
     78 C26         1.9710    3.4120    1.8640 c         1 MOL      0.495530
     79 O14         1.8870    2.4280    1.1210 o         1 MOL     -0.530795
     80 C27         2.3670    5.7010    0.7240 c3        1 MOL      0.006168
     81 C28         3.2460    6.8500    0.5230 c3        1 MOL     -0.079740
     82 C29         2.4730    8.0770    0.0140 c         1 MOL      0.510106
     83 N8          2.6340    8.4410   -1.2830 n         1 MOL     -0.690252
     84 O15         1.6370    8.6780    0.6930 o         1 MOL     -0.530396
     85 H33         4.0210    3.5360   -0.0460 hn        1 MOL      0.125789
     86 H34         3.2230    4.8170    2.5420 h1        1 MOL      0.066439
     87 H35         1.4540    6.0280    1.2130 hc        1 MOL      0.050745
     88 H36         2.1500    5.3840   -0.3000 hc        1 MOL      0.050745
     89 H37         4.1180    6.5820   -0.0810 hc        1 MOL      0.029854
     90 H38         3.6160    7.1940    1.4930 hc        1 MOL      0.029854
     91 H39         3.2660    7.8500   -1.7930 hn        1 MOL      0.331846
     92 H40         2.5150    9.4250   -1.5040 hn        1 MOL      0.331846
     93 N9          1.0340    3.6350    2.8260 n         1 MOL     -0.445110
     94 C30        -0.0590    2.6340    2.9730 c3        1 MOL     -0.036540
     95 C31        -1.3440    3.0970    2.3080 c         1 MOL      0.497722
     96 O16        -1.9260    4.1180    2.6580 o         1 MOL     -0.551813
     97 C32        -0.2670    2.3860    4.4570 c3        1 MOL      0.222834
     98 C33        -1.4760    1.3860    4.6990 c3        1 MOL     -0.289635
     99 C34         1.0020    1.8440    5.2320 c3        1 MOL     -0.289635
    100 H41         1.0080    4.5440    3.2760 hn        1 MOL      0.298419
    101 H42         0.3030    1.6920    2.5850 h1        1 MOL      0.168408
    102 H43        -0.5270    3.3130    4.9700 hc        1 MOL     -0.020229
    103 H44        -1.2590    0.4440    4.1930 hc        1 MOL      0.058187
    104 H45        -1.5530    1.1920    5.7640 hc        1 MOL      0.058187
    105 H46        -2.3650    1.8290    4.2530 hc        1 MOL      0.058187
    106 H47         1.9240    2.2240    4.7800 hc        1 MOL      0.058187
    107 H48         0.9320    2.0430    6.3050 hc        1 MOL      0.058187
    108 H49         1.0300    0.7560    5.1970 hc        1 MOL      0.058187
    109 N10        -1.7920    2.2620    1.3210 n         1 MOL     -0.210988
    110 C35        -3.0650    2.5340    0.7010 c3        1 MOL      0.058810
    111 C36        -4.2760    1.8590    1.3190 c         1 MOL      0.392248
    112 O17        -4.1660    0.8600    1.9940 o         1 MOL     -0.393787
    113 C37        -2.8830    2.3050   -0.8290 c3        1 MOL     -0.219663
    114 C38        -3.0730    0.8680   -1.2840 c         1 MOL      0.578432
    115 N11        -2.0140    0.2130   -1.7570 n         1 MOL     -0.696284
    116 O18        -4.2060    0.3410   -1.2470 o         1 MOL     -0.505935
    117 H50        -1.2920    1.4250    1.0630 hn        1 MOL      0.182486
    118 H51        -3.2100    3.6030    0.8390 h1        1 MOL      0.048166
    119 H52        -1.8550    2.5600   -1.1040 hc        1 MOL      0.085995
    120 H53        -3.5100    3.0040   -1.3670 hc        1 MOL      0.085995
    121 H54        -1.0960    0.6380   -1.7680 hn        1 MOL      0.382105
    122 H55        -2.1130   -0.7610   -2.0190 hn        1 MOL      0.382105
    123 N12        -5.4820    2.2720    0.9360 n         1 MOL     -0.339393
    124 C39        -6.7920    1.7360    1.4090 c3        1 MOL      0.060795
    125 C40        -7.0290    0.2590    1.1860 c         1 MOL      0.457408
    126 O19        -7.6410   -0.3680    2.0380 o         1 MOL     -0.577679
    127 C41        -8.0180    2.4760    0.8460 c3        1 MOL      0.108350
    128 C42        -8.2500    2.4330   -0.6310 ca        1 MOL      0.220199
    129 C43        -9.1820    1.5040   -1.1390 ca        1 MOL     -0.411547
    130 C44        -7.5610    3.3330   -1.4570 ca        1 MOL     -0.411547
    131 C45        -9.4690    1.4600   -2.4660 ca        1 MOL     -0.051614
    132 C46        -7.7730    3.2250   -2.8560 ca        1 MOL     -0.051614
    133 C47        -8.7790    2.3620   -3.3090 ca        1 MOL      0.150725
    134 O20        -9.0680    2.3870   -4.6310 oh        1 MOL     -0.476457
    135 H56        -5.5080    3.1260    0.3930 hn        1 MOL      0.218989
    136 H57        -6.8350    1.9180    2.4750 h1        1 MOL      0.058094
    137 H58        -7.9630    3.5320    1.1070 hc        1 MOL     -0.042264
    138 H59        -8.9160    2.1740    1.3940 hc        1 MOL     -0.042264
    139 H60        -9.7130    0.8340   -0.4780 ha        1 MOL      0.191172
    140 H61        -6.8840    4.0980   -1.1290 ha        1 MOL      0.191172
    141 H62       -10.2770    0.8310   -2.8130 ha        1 MOL      0.108677
    142 H63        -7.3430    3.9300   -3.5570 ha        1 MOL      0.108677
    143 H64        -9.8960    1.9360   -4.8430 ho        1 MOL      0.380939
    144 N13        -6.5110   -0.3330    0.0720 n         1 MOL     -0.203848
    145 C48        -6.5990   -1.7740   -0.2790 c3        1 MOL     -0.079409
    146 C49        -5.5400   -2.5760    0.4720 c         1 MOL      0.404618
    147 O21        -5.8240   -3.6870    0.7940 o         1 MOL     -0.545155
    148 C50        -6.4700   -2.1220   -1.7670 c3        1 MOL     -0.122760
    149 C51        -7.6380   -1.3760   -2.5610 c3        1 MOL     -0.052625
    150 C52        -7.6120   -1.5650   -4.0160 c         1 MOL      0.734999
    151 O22        -8.6610   -1.7420   -4.6730 o         1 MOL     -0.760620
    152 O23        -6.4780   -1.4440   -4.5950 o         1 MOL     -0.760620
    153 H65        -5.8820    0.2950   -0.4040 hn        1 MOL      0.156922
    154 H66        -7.5430   -2.2350    0.0000 h1        1 MOL      0.110007
    155 H67        -6.5990   -3.1870   -1.9460 hc        1 MOL      0.052156
    156 H68        -5.5150   -1.7260   -2.1090 hc        1 MOL      0.052156
    157 H69        -7.4630   -0.3030   -2.4500 hc        1 MOL      0.011427
    158 H70        -8.5870   -1.7780   -2.2080 hc        1 MOL      0.011427
    159 N14        -4.3660   -2.0890    0.7990 n         1 MOL     -0.079767
    160 C53        -3.3550   -2.7270    1.6750 c3        1 MOL     -0.300693
    161 C54        -3.8640   -2.7380    3.1330 c         1 MOL      0.478184
    162 O24        -3.5960   -3.6840    3.8770 o         1 MOL     -0.556317
    163 C55        -1.9620   -2.0660    1.5490 c3        1 MOL      0.261524
    164 C56        -1.2330   -2.3870    0.2270 c3        1 MOL     -0.096930
    165 C57         0.0680   -1.5320    0.0940 c         1 MOL      0.654448
    166 O25         0.0990   -0.3680    0.4610 o         1 MOL     -0.703822
    167 O26         1.1670   -2.0680   -0.2400 o         1 MOL     -0.703822
    168 H71        -4.1460   -1.1120    0.6270 hn        1 MOL      0.112804
    169 H72        -3.3500   -3.7660    1.3420 h1        1 MOL      0.146189
    170 H73        -1.3260   -2.3040    2.3990 hc        1 MOL     -0.023170
    171 H74        -2.1570   -0.9950    1.6790 hc        1 MOL     -0.023170
    172 H75        -1.8140   -2.1930   -0.6810 hc        1 MOL      0.012471
    173 H76        -1.0110   -3.4490    0.3510 hc        1 MOL      0.012471
    174 N15        -4.5490   -1.6360    3.5630 n         1 MOL     -0.109988
    175 C58        -5.0970   -1.4450    4.9240 c3        1 MOL     -0.247560
    176 H77        -4.4710   -0.7390    5.4700 h1        1 MOL      0.094086
    177 H78        -6.1120   -1.0530    4.8560 h1        1 MOL      0.094086
    178 H79        -5.1090   -2.4010    5.4480 h1        1 MOL      0.094086
    179 H80        -4.6160   -0.9370    2.8510 hn        1 MOL      0.134009
    180 Ca1         2.6320    0.0520   -0.0960 Ca        1 MOL      1.728194
    181 O27         2.4730   -0.2830    2.5370 oh        1 MOL     -0.867281
    182 H81         1.8680   -0.9040    2.9390 ho        1 MOL      0.422416
    183 H82         2.8800    0.1690    3.2750 ho        1 MOL      0.422416
    184 O28         4.8760    0.7360    1.4200 oh        1 MOL     -0.867281
    185 H83         5.6850    0.2260    1.3410 ho        1 MOL      0.422416
    186 H84         4.7950    0.9170    2.3610 ho        1 MOL      0.422416
    187 O29         0.5110    1.4520   -1.9530 oh        1 MOL     -0.867281
    188 H85         0.5980    0.9350   -2.7570 ho        1 MOL      0.422416
    189 H86         1.0680    2.2110   -2.1000 ho        1 MOL      0.422416
@<TRIPOS>BOND
     1    1    2 1   
     2    1    4 1   
     3    1    5 1   
     4    1    6 1   
     5    2    3 2   
     6    2    7 1   
     7    7    8 1   
     8    7   15 1   
     9    8    9 1   
    10    8   11 1   
    11    8   16 1   
    12    9   10 2   
    13    9   19 1   
    14   11   12 1   
    15   11   17 1   
    16   11   18 1   
    17   12   13 1   
    18   12   14 1   
    19   19   20 1   
    20   19   27 1   
    21   20   21 1   
    22   20   23 1   
    23   20   28 1   
    24   21   22 2   
    25   21   38 1   
    26   23   24 1   
    27   23   25 1   
    28   23   29 1   
    29   24   26 1   
    30   24   30 1   
    31   24   31 1   
    32   25   32 1   
    33   25   33 1   
    34   25   34 1   
    35   26   35 1   
    36   26   36 1   
    37   26   37 1   
    38   38   39 1   
    39   38   46 1   
    40   39   40 1   
    41   39   42 1   
    42   39   47 1   
    43   40   41 2   
    44   40   50 1   
    45   42   43 1   
    46   42   48 1   
    47   42   49 1   
    48   43   44 1   
    49   43   45 1   
    50   50   51 1   
    51   50   54 1   
    52   51   52 1   
    53   51   55 1   
    54   51   56 1   
    55   52   53 2   
    56   52   57 1   
    57   57   58 1   
    58   57   65 1   
    59   58   59 1   
    60   58   61 1   
    61   58   66 1   
    62   59   60 2   
    63   59   69 1   
    64   61   62 1   
    65   61   67 1   
    66   61   68 1   
    67   62   63 1   
    68   62   64 1   
    69   69   70 1   
    70   69   73 1   
    71   70   71 1   
    72   70   74 1   
    73   70   75 1   
    74   71   72 2   
    75   71   76 1   
    76   76   77 1   
    77   76   85 1   
    78   77   78 1   
    79   77   80 1   
    80   77   86 1   
    81   78   79 2   
    82   78   93 1   
    83   80   81 1   
    84   80   87 1   
    85   80   88 1   
    86   81   82 1   
    87   81   89 1   
    88   81   90 1   
    89   82   83 1   
    90   82   84 2   
    91   83   91 1   
    92   83   92 1   
    93   93   94 1   
    94   93  100 1   
    95   94   95 1   
    96   94   97 1   
    97   94  101 1   
    98   95   96 2   
    99   95  109 1   
   100   97   98 1   
   101   97   99 1   
   102   97  102 1   
   103   98  103 1   
   104   98  104 1   
   105   98  105 1   
   106   99  106 1   
   107   99  107 1   
   108   99  108 1   
   109  109  110 1   
   110  109  117 1   
   111  110  111 1   
   112  110  113 1   
   113  110  118 1   
   114  111  112 2   
   115  111  123 1   
   116  113  114 1   
   117  113  119 1   
   118  113  120 1   
   119  114  115 1   
   120  114  116 2   
   121  115  121 1   
   122  115  122 1   
   123  123  124 1   
   124  123  135 1   
   125  124  125 1   
   126  124  127 1   
   127  124  136 1   
   128  125  126 2   
   129  125  144 1   
   130  127  128 1   
   131  127  137 1   
   132  127  138 1   
   133  128  129 ar  
   134  128  130 ar  
   135  129  131 ar  
   136  129  139 1   
   137  130  132 ar  
   138  130  140 1   
   139  131  133 ar  
   140  131  141 1   
   141  132  133 ar  
   142  132  142 1   
   143  133  134 1   
   144  134  143 1   
   145  144  145 1   
   146  144  153 1   
   147  145  146 1   
   148  145  148 1   
   149  145  154 1   
   150  146  147 2   
   151  146  159 1   
   152  148  149 1   
   153  148  155 1   
   154  148  156 1   
   155  149  150 1   
   156  149  157 1   
   157  149  158 1   
   158  150  151 1   
   159  150  152 1   
   160  159  160 1   
   161  159  168 1   
   162  160  161 1   
   163  160  163 1   
   164  160  169 1   
   165  161  162 2   
   166  161  174 1   
   167  163  164 1   
   168  163  170 1   
   169  163  171 1   
   170  164  165 1   
   171  164  172 1   
   172  164  173 1   
   173  165  166 1   
   174  165  167 1   
   175  174  175 1   
   176  174  179 1   
   177  175  176 1   
   178  175  177 1   
   179  175  178 1   
   180  181  182 1   
   181  181  183 1   
   182  184  185 1   
   183  184  186 1   
   184  187  188 1   
   185  187  189 1   
@<TRIPOS>SUBSTRUCTURE
     1 MOL         1 TEMP              0 ****  ****    0 ROOT
