@<TRIPOS>MOLECULE
MOL
  183   181     1     0     0
SMALL
resp


@<TRIPOS>ATOM
      1 C1         -0.7030    1.3610    6.4140 c3        1 MOL     -0.270476
      2 C2         -0.9690    1.3820    4.8890 c         1 MOL      0.807237
      3 O1         -0.0040    1.7480    4.1440 o         1 MOL     -0.610732
      4 H1         -0.6280    0.3280    6.7550 hc        1 MOL      0.058356
      5 H2          0.2300    1.8820    6.6280 hc        1 MOL      0.058356
      6 H3         -1.5240    1.8570    6.9330 hc        1 MOL      0.058356
      7 N1         -2.0730    0.8960    4.3820 n         1 MOL     -0.724296
      8 C3         -2.4270    1.0150    3.0020 c3        1 MOL      0.190716
      9 C4         -2.8450    2.4960    2.7940 c         1 MOL      0.563764
     10 O2         -3.4220    3.0870    3.7040 o         1 MOL     -0.599204
     11 C5         -3.6840    0.1490    2.7690 c3        1 MOL     -0.060888
     12 C6         -4.3300    0.2140    1.3930 c         1 MOL      0.613451
     13 O3         -5.5020   -0.1150    1.4550 o         1 MOL     -0.593564
     14 O4         -3.7780    0.6990    0.3920 o         1 MOL     -0.593564
     15 H4         -2.8110    0.5350    4.9630 hn        1 MOL      0.352904
     16 H5         -1.6150    0.7330    2.3210 h1        1 MOL     -0.087490
     17 H6         -4.3900    0.3140    3.5920 hc        1 MOL      0.015465
     18 H7         -3.3190   -0.8190    3.1180 hc        1 MOL      0.015465
     19 N2         -2.6810    2.9920    1.5690 n         1 MOL     -0.376692
     20 C7         -3.0430    4.4140    1.1810 c3        1 MOL      0.015377
     21 C8         -4.0430    4.3970   -0.0510 c         1 MOL      0.338828
     22 O5         -4.7710    5.4320   -0.3050 o         1 MOL     -0.570885
     23 C9         -1.7590    5.1470    0.9530 c3        1 MOL      0.285772
     24 C10        -0.8830    5.2540    2.2750 c3        1 MOL      0.264442
     25 C11        -1.9450    6.5950    0.4390 c3        1 MOL     -0.520174
     26 C12         0.4890    5.8610    2.1130 c3        1 MOL     -0.113088
     27 H8         -2.3270    2.4180    0.8160 hn        1 MOL      0.160758
     28 H9         -3.5310    4.9590    1.9840 h1        1 MOL      0.065815
     29 H10        -1.2090    4.5950    0.1920 hc        1 MOL     -0.014463
     30 H11        -0.7780    4.2500    2.6780 hc        1 MOL     -0.087474
     31 H12        -1.4260    5.8340    3.0210 hc        1 MOL     -0.087474
     32 H13        -2.6870    7.1510    1.0100 hc        1 MOL      0.112943
     33 H14        -1.0140    7.1110    0.2160 hc        1 MOL      0.112943
     34 H15        -2.4320    6.4620   -0.5280 hc        1 MOL      0.112943
     35 H16         1.0780    5.1280    1.5520 hc        1 MOL      0.006429
     36 H17         0.4260    6.8220    1.6150 hc        1 MOL      0.006429
     37 H18         0.9460    6.0200    3.0880 hc        1 MOL      0.006429
     38 N3         -4.2540    3.3540   -0.8110 n         1 MOL     -0.103688
     39 C13        -5.4130    3.3410   -1.7720 c3        1 MOL     -0.241730
     40 C14        -6.7650    2.8800   -1.2130 c         1 MOL      0.517849
     41 O6         -7.8120    3.2020   -1.7500 o         1 MOL     -0.547530
     42 C15        -5.1170    2.4260   -2.9360 c3        1 MOL     -0.163098
     43 C16        -3.6610    2.3980   -3.3190 c         1 MOL      0.716468
     44 O7         -3.1890    3.0180   -4.2990 o         1 MOL     -0.695578
     45 O8         -2.9570    1.4990   -2.7810 o         1 MOL     -0.695578
     46 H19        -3.6310    2.5630   -0.7080 hn        1 MOL      0.245220
     47 H20        -5.4850    4.3420   -2.1920 h1        1 MOL      0.165923
     48 H21        -5.7500    2.7050   -3.7780 hc        1 MOL      0.059802
     49 H22        -5.2570    1.4330   -2.5170 hc        1 MOL      0.059802
     50 N4         -6.8140    2.1890   -0.0790 n         1 MOL     -0.230504
     51 C17        -8.0590    1.6370    0.4620 c3        1 MOL     -0.229980
     52 C18        -8.3320    0.2910   -0.2580 c         1 MOL      0.489772
     53 O9         -9.4870   -0.0720   -0.5250 o         1 MOL     -0.605407
     54 H23        -5.9440    1.8230    0.2760 hn        1 MOL      0.191834
     55 H24        -8.9020    2.2940    0.2520 h1        1 MOL      0.117113
     56 H25        -7.9610    1.4620    1.5350 h1        1 MOL      0.117113
     57 N5         -7.2960   -0.3510   -0.7820 n         1 MOL     -0.067977
     58 C19        -7.3680   -1.6220   -1.5090 c3        1 MOL     -0.252582
     59 C20        -7.2260   -2.8540   -0.6060 c         1 MOL      0.492271
     60 O10        -7.3810   -3.9610   -1.0980 o         1 MOL     -0.543249
     61 C21        -6.4330   -1.6150   -2.6950 c3        1 MOL      0.087796
     62 C22        -4.9210   -1.5870   -2.4010 c         1 MOL      0.444873
     63 O11        -4.0740   -1.2710   -3.2480 o         1 MOL     -0.638702
     64 O12        -4.5650   -1.6560   -1.1510 o         1 MOL     -0.638702
     65 H26        -6.3750    0.0060   -0.5470 hn        1 MOL      0.122003
     66 H27        -8.3030   -1.6180   -2.0610 h1        1 MOL      0.141124
     67 H28        -6.6030   -0.8310   -3.4340 hc        1 MOL      0.007608
     68 H29        -6.6820   -2.5320   -3.2330 hc        1 MOL      0.007608
     69 N6         -6.8040   -2.6170    0.6470 n         1 MOL     -0.206495
     70 C23        -6.6080   -3.5900    1.6940 c3        1 MOL     -0.115198
     71 C24        -5.3470   -4.4800    1.5380 c         1 MOL      0.525378
     72 O13        -5.2710   -5.6100    2.0310 o         1 MOL     -0.594611
     73 H30        -6.5870   -1.6490    0.8520 hn        1 MOL      0.169349
     74 H31        -7.4190   -4.3070    1.8600 h1        1 MOL      0.063348
     75 H32        -6.4010   -3.0590    2.6150 h1        1 MOL      0.063348
     76 N7         -4.4110   -3.9650    0.7640 n         1 MOL     -0.193085
     77 C25        -3.1060   -4.5590    0.6610 c3        1 MOL      0.009933
     78 C26        -1.9270   -3.6510    0.8730 c         1 MOL      0.539408
     79 O14        -2.1070   -2.4300    0.6690 o         1 MOL     -0.667162
     80 C27        -2.9030   -5.3980   -0.6210 c3        1 MOL      0.215002
     81 C28        -3.0830   -4.7450   -1.9870 c3        1 MOL     -0.317016
     82 C29        -1.8910   -3.9800   -2.5560 c         1 MOL      0.653598
     83 N8         -1.1740   -4.5600   -3.4890 n         1 MOL     -0.738812
     84 O15        -1.6020   -2.9080   -2.1090 o         1 MOL     -0.577409
     85 H33        -4.4910   -3.0280    0.4100 hn        1 MOL      0.192034
     86 H34        -2.8890   -5.3020    1.4340 h1        1 MOL      0.010361
     87 H35        -3.6480   -6.1790   -0.5050 hc        1 MOL     -0.048758
     88 H36        -1.9590   -5.9380   -0.5870 hc        1 MOL     -0.048758
     89 H37        -4.0480   -4.2220   -1.9500 hc        1 MOL      0.095181
     90 H38        -3.3780   -5.5690   -2.6260 hc        1 MOL      0.095181
     91 H39        -1.5670   -5.3430   -3.9890 hn        1 MOL      0.344208
     92 H40        -0.4980   -3.9580   -3.9390 hn        1 MOL      0.344208
     93 N9         -0.8050   -4.1560    1.2480 n         1 MOL     -0.392343
     94 C30         0.3300   -3.1660    1.5710 c3        1 MOL      0.101185
     95 C31         1.6000   -3.6500    0.7790 c         1 MOL      0.350083
     96 O16         2.0580   -4.7670    0.8820 o         1 MOL     -0.544181
     97 C32         0.5250   -3.0410    3.1160 c3        1 MOL      0.070388
     98 C33         2.0050   -2.5720    3.5560 c3        1 MOL     -0.157487
     99 C34        -0.5460   -2.0170    3.5490 c3        1 MOL     -0.157487
    100 H41        -0.7470   -5.1300    1.5040 hn        1 MOL      0.286929
    101 H42         0.0940   -2.2010    1.1220 h1        1 MOL      0.138358
    102 H43         0.2720   -4.0120    3.5510 hc        1 MOL     -0.001465
    103 H44         2.7830   -3.2690    3.2390 hc        1 MOL      0.038784
    104 H45         2.1840   -1.6150    3.0590 hc        1 MOL      0.038784
    105 H46         1.9810   -2.4690    4.6380 hc        1 MOL      0.038784
    106 H47        -0.3650   -1.5490    4.5180 hc        1 MOL      0.038784
    107 H48        -0.6850   -1.1960    2.8460 hc        1 MOL      0.038784
    108 H49        -1.4870   -2.5530    3.6630 hc        1 MOL      0.038784
    109 N10         2.1560   -2.7500   -0.0580 n         1 MOL     -0.100233
    110 C35         3.3810   -3.0030   -0.9020 c3        1 MOL      0.044135
    111 C36         4.6750   -2.3530   -0.2490 c         1 MOL      0.546792
    112 O17         4.6550   -1.7870    0.8530 o         1 MOL     -0.391163
    113 C37         3.0950   -2.4490   -2.3250 c3        1 MOL     -0.273949
    114 C38         3.1880   -0.9960   -2.6140 c         1 MOL      0.526880
    115 N11         2.3460   -0.1340   -2.1330 n         1 MOL     -0.611940
    116 O18         4.0550   -0.5670   -3.4100 o         1 MOL     -0.550084
    117 H50         1.7480   -1.8240   -0.1180 hn        1 MOL     -0.010162
    118 H51         3.5870   -4.0690   -1.0500 h1        1 MOL      0.081871
    119 H52         2.1580   -2.8420   -2.7330 hc        1 MOL      0.095300
    120 H53         3.8680   -2.8320   -2.9780 hc        1 MOL      0.095300
    121 H54         1.4870   -0.4630   -1.7240 hn        1 MOL      0.354428
    122 H55         2.3360    0.7910   -2.5360 hn        1 MOL      0.354428
    123 N12         5.8560   -2.5130   -0.8340 n         1 MOL     -0.754431
    124 C39         7.1340   -1.8220   -0.4390 c3        1 MOL      0.490993
    125 C40         7.0020   -0.2970   -0.3780 c         1 MOL      0.273283
    126 O19         7.6580    0.2860    0.4750 o         1 MOL     -0.453621
    127 C41         8.3280   -2.1750   -1.3150 c3        1 MOL     -0.171800
    128 C42         9.6930   -1.6910   -0.8000 ca        1 MOL      0.027559
    129 C43        10.0910   -2.0900    0.5050 ca        1 MOL     -0.096469
    130 C44        10.5740   -1.0080   -1.6100 ca        1 MOL     -0.096469
    131 C45        11.3580   -1.8120    1.0670 ca        1 MOL     -0.380341
    132 C46        11.8870   -0.7570   -1.0900 ca        1 MOL     -0.380341
    133 C47        12.2140   -1.0860    0.2290 ca        1 MOL      0.432216
    134 O20        13.4000   -0.8350    0.7830 oh        1 MOL     -0.450406
    135 H56         5.8450   -2.8060   -1.7980 hn        1 MOL      0.334792
    136 H57         7.3970   -2.1450    0.5680 h1        1 MOL     -0.002470
    137 H58         8.0980   -1.8550   -2.3390 hc        1 MOL      0.039132
    138 H59         8.4770   -3.2540   -1.3900 hc        1 MOL      0.039132
    139 H60         9.4210   -2.6900    1.1000 ha        1 MOL      0.126160
    140 H61        10.3010   -0.6440   -2.5900 ha        1 MOL      0.126160
    141 H62        11.5960   -2.0180    2.1010 ha        1 MOL      0.178713
    142 H63        12.5310   -0.1820   -1.7380 ha        1 MOL      0.178713
    143 H64        13.8120   -0.2860    0.1170 ho        1 MOL      0.305377
    144 N13         6.2000    0.3450   -1.2530 n         1 MOL     -0.157562
    145 C48         6.0650    1.8170   -1.1430 c3        1 MOL     -0.086084
    146 C49         5.3430    2.3700    0.0250 c         1 MOL      0.228719
    147 O21         5.7640    3.3100    0.7010 o         1 MOL     -0.475589
    148 C50         5.5620    2.2900   -2.4660 c3        1 MOL     -0.024835
    149 C51         5.4030    3.8370   -2.5140 c3        1 MOL     -0.257823
    150 C52         4.9780    4.4250   -3.8680 c         1 MOL      0.755938
    151 O22         5.7560    4.3600   -4.7870 o         1 MOL     -0.745105
    152 O23         3.9560    5.1590   -3.9530 o         1 MOL     -0.745105
    153 H65         5.7770   -0.0810   -2.0670 hn        1 MOL      0.164024
    154 H66         7.1020    2.1490   -1.0800 h1        1 MOL      0.118045
    155 H67         4.6570    1.8190   -2.8570 hc        1 MOL      0.025649
    156 H68         6.2990    2.0110   -3.2220 hc        1 MOL      0.025649
    157 H69         6.3810    4.2280   -2.2340 hc        1 MOL      0.054341
    158 H70         4.6400    4.1420   -1.7870 hc        1 MOL      0.054341
    159 N14         4.2800    1.6320    0.3620 n         1 MOL      0.046069
    160 C53         3.4270    1.9300    1.5680 c3        1 MOL      0.034625
    161 C54         4.0790    1.5070    2.8750 c         1 MOL      0.345933
    162 O24         4.0530    2.1970    3.8740 o         1 MOL     -0.548270
    163 C55         2.1220    1.2250    1.3850 c3        1 MOL      0.108358
    164 C56         1.1120    2.0500    0.4720 c3        1 MOL      0.041865
    165 C57        -0.0230    1.2330   -0.1210 c         1 MOL      0.811470
    166 O25        -1.1020    1.7640   -0.5150 o         1 MOL     -0.765681
    167 O26         0.0760    0.0030   -0.2850 o         1 MOL     -0.765681
    168 H71         4.0870    0.8860   -0.3020 hn        1 MOL      0.050972
    169 H72         3.2160    2.9930    1.6220 h1        1 MOL      0.074392
    170 H73         1.5890    1.0640    2.3220 hc        1 MOL      0.026494
    171 H74         2.2500    0.2360    0.9460 hc        1 MOL      0.026494
    172 H75         1.6680    2.5080   -0.3550 hc        1 MOL     -0.041867
    173 H76         0.8700    2.9060    1.0970 hc        1 MOL     -0.041867
    174 N15         4.7840    0.4110    2.8320 n         1 MOL      0.006023
    175 C58         5.7640   -0.0020    3.8960 c3        1 MOL     -0.291919
    176 H77         5.5260   -1.0110    4.2360 h1        1 MOL      0.100938
    177 H78         6.7740    0.0140    3.4870 h1        1 MOL      0.100938
    178 H79         5.7010    0.6890    4.7370 h1        1 MOL      0.100938
    179 H80         4.7240   -0.2170    2.0420 hn        1 MOL      0.030390
    180 Ca1        -2.2600   -0.5530   -1.3830 Ca        1 MOL      1.754069
    181 O27        -0.9240   -0.4000   -3.6250 oh        1 MOL     -0.893782
    182 H81        -0.9880    0.4110   -4.1430 ho        1 MOL      0.422254
    183 H82        -0.3920   -0.9890   -4.1630 ho        1 MOL      0.422254
@<TRIPOS>BOND
     1    1    2 1   
     2    1    4 1   
     3    1    5 1   
     4    1    6 1   
     5    2    3 2   
     6    2    7 1   
     7    7    8 1   
     8    7   15 1   
     9    8    9 1   
    10    8   11 1   
    11    8   16 1   
    12    9   10 2   
    13    9   19 1   
    14   11   12 1   
    15   11   17 1   
    16   11   18 1   
    17   12   13 1   
    18   12   14 1   
    19   19   20 1   
    20   19   27 1   
    21   20   21 1   
    22   20   23 1   
    23   20   28 1   
    24   21   22 2   
    25   21   38 1   
    26   23   24 1   
    27   23   25 1   
    28   23   29 1   
    29   24   26 1   
    30   24   30 1   
    31   24   31 1   
    32   25   32 1   
    33   25   33 1   
    34   25   34 1   
    35   26   35 1   
    36   26   36 1   
    37   26   37 1   
    38   38   39 1   
    39   38   46 1   
    40   39   40 1   
    41   39   42 1   
    42   39   47 1   
    43   40   41 2   
    44   40   50 1   
    45   42   43 1   
    46   42   48 1   
    47   42   49 1   
    48   43   44 1   
    49   43   45 1   
    50   50   51 1   
    51   50   54 1   
    52   51   52 1   
    53   51   55 1   
    54   51   56 1   
    55   52   53 2   
    56   52   57 1   
    57   57   58 1   
    58   57   65 1   
    59   58   59 1   
    60   58   61 1   
    61   58   66 1   
    62   59   60 2   
    63   59   69 1   
    64   61   62 1   
    65   61   67 1   
    66   61   68 1   
    67   62   63 1   
    68   62   64 1   
    69   69   70 1   
    70   69   73 1   
    71   70   71 1   
    72   70   74 1   
    73   70   75 1   
    74   71   72 2   
    75   71   76 1   
    76   76   77 1   
    77   76   85 1   
    78   77   78 1   
    79   77   80 1   
    80   77   86 1   
    81   78   79 2   
    82   78   93 1   
    83   80   81 1   
    84   80   87 1   
    85   80   88 1   
    86   81   82 1   
    87   81   89 1   
    88   81   90 1   
    89   82   83 1   
    90   82   84 2   
    91   83   91 1   
    92   83   92 1   
    93   93   94 1   
    94   93  100 1   
    95   94   95 1   
    96   94   97 1   
    97   94  101 1   
    98   95   96 2   
    99   95  109 1   
   100   97   98 1   
   101   97   99 1   
   102   97  102 1   
   103   98  103 1   
   104   98  104 1   
   105   98  105 1   
   106   99  106 1   
   107   99  107 1   
   108   99  108 1   
   109  109  110 1   
   110  109  117 1   
   111  110  111 1   
   112  110  113 1   
   113  110  118 1   
   114  111  112 2   
   115  111  123 1   
   116  113  114 1   
   117  113  119 1   
   118  113  120 1   
   119  114  115 1   
   120  114  116 2   
   121  115  121 1   
   122  115  122 1   
   123  123  124 1   
   124  123  135 1   
   125  124  125 1   
   126  124  127 1   
   127  124  136 1   
   128  125  126 2   
   129  125  144 1   
   130  127  128 1   
   131  127  137 1   
   132  127  138 1   
   133  128  129 ar  
   134  128  130 ar  
   135  129  131 ar  
   136  129  139 1   
   137  130  132 ar  
   138  130  140 1   
   139  131  133 ar  
   140  131  141 1   
   141  132  133 ar  
   142  132  142 1   
   143  133  134 1   
   144  134  143 1   
   145  144  145 1   
   146  144  153 1   
   147  145  146 1   
   148  145  148 1   
   149  145  154 1   
   150  146  147 2   
   151  146  159 1   
   152  148  149 1   
   153  148  155 1   
   154  148  156 1   
   155  149  150 1   
   156  149  157 1   
   157  149  158 1   
   158  150  151 1   
   159  150  152 1   
   160  159  160 1   
   161  159  168 1   
   162  160  161 1   
   163  160  163 1   
   164  160  169 1   
   165  161  162 2   
   166  161  174 1   
   167  163  164 1   
   168  163  170 1   
   169  163  171 1   
   170  164  165 1   
   171  164  172 1   
   172  164  173 1   
   173  165  166 1   
   174  165  167 1   
   175  174  175 1   
   176  174  179 1   
   177  175  176 1   
   178  175  177 1   
   179  175  178 1   
   180  181  182 1   
   181  181  183 1   
@<TRIPOS>SUBSTRUCTURE
     1 MOL         1 TEMP              0 ****  ****    0 ROOT
