@<TRIPOS>MOLECULE
MOL
  175   173     1     0     0
SMALL
resp


@<TRIPOS>ATOM
      1 C1         -0.7390   -4.1510    5.4070 c3        1 MOL     -0.331508
      2 C2         -0.0390   -4.1600    3.9570 c         1 MOL      0.640356
      3 O1         -0.6460   -4.0280    2.9030 o         1 MOL     -0.504337
      4 H1         -0.1290   -4.7210    6.1080 hc        1 MOL      0.088533
      5 H2         -0.8320   -3.1240    5.7600 hc        1 MOL      0.088533
      6 H3         -1.7270   -4.6040    5.3360 hc        1 MOL      0.088533
      7 N1          1.3520   -4.0610    3.8890 n         1 MOL     -0.643467
      8 C3          2.1130   -3.5510    2.7110 c3        1 MOL      0.134438
      9 C4          2.4310   -4.7170    1.7240 c         1 MOL      0.523906
     10 O2          2.8720   -5.7850    2.2170 o         1 MOL     -0.571780
     11 C5          3.4480   -2.9280    3.1430 c3        1 MOL     -0.386910
     12 C6          4.2780   -2.4920    1.8820 c         1 MOL      0.727650
     13 O3          3.6830   -1.8210    0.9800 o         1 MOL     -0.659799
     14 O4          5.4710   -2.8750    1.7080 o         1 MOL     -0.659799
     15 H4          1.9290   -4.4860    4.5940 hn        1 MOL      0.331577
     16 H5          1.5440   -2.7710    2.2050 h1        1 MOL      0.128716
     17 H6          3.9180   -3.7800    3.6240 hc        1 MOL      0.078813
     18 H7          3.3480   -2.0710    3.8130 hc        1 MOL      0.078813
     19 N2          2.3450   -4.4640    0.4270 n         1 MOL     -0.234028
     20 C7          2.4270   -5.4360   -0.6430 c3        1 MOL      0.145075
     21 C8          3.3920   -5.0090   -1.8110 c         1 MOL      0.458705
     22 O5          3.5290   -5.7760   -2.7800 o         1 MOL     -0.547093
     23 C9          0.9570   -5.9030   -1.1550 c3        1 MOL     -0.312010
     24 H8          1.8670   -3.5960    0.2320 hn        1 MOL      0.190799
     25 H9          2.8990   -6.3060   -0.1860 h1        1 MOL      0.018756
     26 H10         0.5060   -5.1370   -1.7870 hc        1 MOL      0.085536
     27 H11         0.9950   -6.7370   -1.8590 hc        1 MOL      0.085536
     28 H12         0.2660   -6.0390   -0.3270 hc        1 MOL      0.085536
     29 N3          3.9860   -3.7960   -1.6550 n         1 MOL     -0.221719
     30 C10         5.0160   -3.4030   -2.6160 c3        1 MOL     -0.017876
     31 C11         6.2970   -2.5740   -2.1340 c         1 MOL      0.385958
     32 O6          7.2620   -2.5710   -2.8630 o         1 MOL     -0.514531
     33 C12         4.2480   -2.5250   -3.6860 c3        1 MOL     -0.191108
     34 C13         3.2860   -1.5530   -2.9260 c         1 MOL      0.684417
     35 O7          2.1310   -1.3350   -3.3870 o         1 MOL     -0.682834
     36 O8          3.7230   -0.8770   -1.9430 o         1 MOL     -0.682834
     37 H13         3.9100   -3.2260   -0.8270 hn        1 MOL      0.103616
     38 H14         5.4530   -4.2700   -3.1170 h1        1 MOL      0.077223
     39 H15         3.4840   -3.1150   -4.1890 hc        1 MOL      0.052692
     40 H16         4.8590   -1.9920   -4.4090 hc        1 MOL      0.052692
     41 N4          6.2410   -1.9830   -0.9320 n         1 MOL     -0.086986
     42 C14         7.2730   -1.1440   -0.4480 c3        1 MOL     -0.103589
     43 C15         7.3760    0.1550   -1.2430 c         1 MOL      0.360742
     44 O9          8.4970    0.6750   -1.4470 o         1 MOL     -0.578548
     45 H17         5.4340   -2.0490   -0.3360 hn        1 MOL      0.136174
     46 H18         8.2490   -1.5940   -0.6010 h1        1 MOL      0.072148
     47 H19         7.1610   -1.0020    0.6240 h1        1 MOL      0.072148
     48 N5          6.2770    0.7740   -1.6170 n         1 MOL     -0.002420
     49 C16         6.1750    2.0710   -2.2270 c3        1 MOL     -0.067630
     50 C17         6.1010    3.1910   -1.2270 c         1 MOL      0.490757
     51 O10         6.3540    4.3030   -1.7340 o         1 MOL     -0.568581
     52 C18         4.9510    2.0100   -3.2080 c3        1 MOL     -0.034624
     53 C19         3.6180    2.2220   -2.5150 c         1 MOL      0.470935
     54 N6          2.6910    2.8680   -3.1310 n         1 MOL     -0.568113
     55 O11         3.4510    1.8820   -1.3660 o         1 MOL     -0.595647
     56 H20         5.4190    0.2410   -1.4990 hn        1 MOL      0.078536
     57 H21         7.0340    2.3950   -2.8180 h1        1 MOL      0.093821
     58 H22         5.1100    1.0530   -3.7030 hc        1 MOL      0.032099
     59 H23         5.0290    2.6730   -4.0630 hc        1 MOL      0.032099
     60 H24         2.8330    3.0850   -4.1100 hn        1 MOL      0.313959
     61 H25         1.8210    2.8530   -2.6110 hn        1 MOL      0.313959
     62 N7          5.8660    2.9780    0.0400 n         1 MOL     -0.227556
     63 C20         6.0560    4.0440    1.0820 c3        1 MOL     -0.259331
     64 C21         4.7670    4.7880    1.5040 c         1 MOL      0.542531
     65 O12         4.8020    5.6670    2.3360 o         1 MOL     -0.591133
     66 H26         5.6300    2.0440    0.3290 hn        1 MOL      0.193756
     67 H27         6.7980    4.7820    0.7840 h1        1 MOL      0.120409
     68 H28         6.3370    3.6070    2.0470 h1        1 MOL      0.120409
     69 N8          3.6760    4.3410    0.9430 n         1 MOL     -0.187827
     70 C22         2.2960    4.7070    1.3410 c3        1 MOL     -0.040910
     71 C23         1.3430    3.4860    1.5310 c         1 MOL      0.146413
     72 O13         1.4490    2.4220    0.9050 o         1 MOL     -0.175811
     73 C24         1.6610    5.5160    0.1810 c3        1 MOL      0.263989
     74 C25         2.2220    6.9260    0.0950 c3        1 MOL     -0.418726
     75 O14         1.9660    4.9880   -1.0810 oh        1 MOL     -0.596971
     76 H29         3.8170    3.7310    0.1490 hn        1 MOL      0.268446
     77 H30         2.3310    5.3840    2.1950 h1        1 MOL      0.100746
     78 H31         0.5690    5.5920    0.1560 h1        1 MOL      0.053122
     79 H32         1.1960    4.4270   -1.2540 ho        1 MOL      0.416768
     80 H33         2.0330    7.5080    1.0000 hc        1 MOL      0.107306
     81 H34         3.3040    6.9480   -0.0320 hc        1 MOL      0.107306
     82 H35         1.7080    7.4620   -0.7030 hc        1 MOL      0.107306
     83 N9          0.3490    3.6040    2.4460 n         1 MOL     -0.346875
     84 C26        -0.8150    2.7220    2.3510 c3        1 MOL     -0.050535
     85 C27        -1.6540    3.0150    1.0980 c         1 MOL      0.242320
     86 O15        -2.0510    4.1660    0.8760 o         1 MOL     -0.532740
     87 C28        -1.6090    2.9650    3.5940 c3        1 MOL      0.470636
     88 C29        -0.8670    2.3750    4.8280 c3        1 MOL     -0.191115
     89 C30        -2.9620    2.1770    3.5670 c3        1 MOL     -0.607869
     90 C31        -1.3590    2.9790    6.1360 c3        1 MOL      0.090577
     91 H36         0.2140    4.5240    2.8460 hn        1 MOL      0.262924
     92 H37        -0.5020    1.6870    2.2520 h1        1 MOL     -0.059899
     93 H38        -1.7720    4.0330    3.6580 hc        1 MOL     -0.049292
     94 H39         0.1690    2.6900    4.7260 hc        1 MOL      0.048637
     95 H40        -1.0240    1.2940    4.8790 hc        1 MOL      0.048637
     96 H41        -2.8320    1.1430    3.2490 hc        1 MOL      0.130657
     97 H42        -3.4000    2.0130    4.5500 hc        1 MOL      0.130657
     98 H43        -3.6930    2.6910    2.9290 hc        1 MOL      0.130657
     99 H44        -2.4020    2.7260    6.3620 hc        1 MOL     -0.031869
    100 H45        -0.6650    2.7050    6.9310 hc        1 MOL     -0.031869
    101 H46        -1.2940    4.0640    6.0740 hc        1 MOL     -0.031869
    102 N10        -1.8870    2.0070    0.2840 n         1 MOL      0.000006
    103 C32        -2.6450    2.1110   -0.9000 c3        1 MOL      0.007197
    104 C33        -4.0820    1.4260   -0.7770 c         1 MOL      0.337779
    105 O16        -4.3480    0.7060    0.1800 o         1 MOL     -0.351249
    106 C34        -1.8130    1.4940   -1.9930 c3        1 MOL     -0.280149
    107 C35        -0.3590    1.8200   -1.9810 c         1 MOL      0.866435
    108 O17         0.4300    0.8910   -1.7110 o         1 MOL     -0.744053
    109 O18        -0.0640    3.0180   -2.2860 o         1 MOL     -0.744053
    110 H47        -1.3710    1.1410    0.4450 hn        1 MOL      0.335623
    111 H48        -2.7640    3.1650   -1.1310 h1        1 MOL      0.057565
    112 H49        -2.1050    1.6720   -3.0200 hc        1 MOL      0.046498
    113 H50        -2.0110    0.4290   -1.8850 hc        1 MOL      0.046498
    114 N11        -5.0610    1.7530   -1.6040 n         1 MOL     -0.401300
    115 C36        -6.4750    1.2860   -1.4440 c3        1 MOL      0.196628
    116 C37        -6.6690   -0.2130   -1.3220 c         1 MOL      0.312382
    117 O19        -7.3220   -0.5760   -0.3080 o         1 MOL     -0.523749
    118 C38        -7.3810    1.8880   -2.4830 c3        1 MOL     -0.235549
    119 C39        -8.8870    1.7160   -2.1430 ca        1 MOL      0.151159
    120 C40        -9.6400    2.7520   -1.4800 ca        1 MOL     -0.223950
    121 C41        -9.6230    0.5640   -2.5490 ca        1 MOL     -0.223950
    122 C42       -11.0430    2.6100   -1.3090 ca        1 MOL     -0.004494
    123 C43       -10.9970    0.4410   -2.4010 ca        1 MOL     -0.004494
    124 C44       -11.7540    1.4970   -1.8080 ca        1 MOL     -0.254390
    125 H51        -4.8170    2.3740   -2.3620 hn        1 MOL      0.269194
    126 H52        -6.7230    1.7490   -0.4860 h1        1 MOL      0.081625
    127 H53        -7.1720    1.5300   -3.4920 hc        1 MOL      0.073123
    128 H54        -7.1460    2.9500   -2.4120 hc        1 MOL      0.073123
    129 H55        -9.1430    3.6570   -1.1460 ha        1 MOL      0.123766
    130 H56        -9.0940   -0.2700   -2.9780 ha        1 MOL      0.123766
    131 H57       -11.6140    3.3960   -0.8410 ha        1 MOL      0.086812
    132 H58       -11.5200   -0.4640   -2.6750 ha        1 MOL      0.086812
    133 H59       -12.7940    1.3190   -1.6040 ha        1 MOL      0.144233
    134 N12        -6.0540   -1.0890   -2.1120 n         1 MOL      0.082268
    135 C45        -6.1230   -2.5150   -1.8430 c3        1 MOL     -0.064276
    136 C46        -5.5830   -2.9240   -0.4700 c         1 MOL      0.395401
    137 O20        -6.0000   -3.9430    0.0460 o         1 MOL     -0.512991
    138 C47        -5.4540   -3.2080   -2.9540 c3        1 MOL     -0.186836
    139 C48        -4.5210   -2.1330   -3.5870 c3        1 MOL      0.038215
    140 C49        -5.3410   -0.8930   -3.3780 c3        1 MOL     -0.111817
    141 H60        -7.1790   -2.7740   -1.9080 h1        1 MOL      0.075917
    142 H61        -4.8810   -4.0950   -2.6850 hc        1 MOL      0.079747
    143 H62        -6.2500   -3.4490   -3.6710 hc        1 MOL      0.079747
    144 H63        -3.5910   -2.1030   -3.0290 hc        1 MOL      0.023951
    145 H64        -4.3650   -2.2880   -4.6560 hc        1 MOL      0.023951
    146 H65        -4.6830   -0.0220   -3.3630 h1        1 MOL      0.044777
    147 H66        -6.0860   -0.7910   -4.1680 h1        1 MOL      0.044777
    148 N13        -4.6130   -2.2070    0.0990 n         1 MOL     -0.037201
    149 C50        -4.0550   -2.4190    1.4100 c3        1 MOL     -0.253892
    150 C51        -4.9450   -1.9540    2.5810 c         1 MOL      0.531158
    151 O21        -5.3400   -2.7170    3.3970 o         1 MOL     -0.540791
    152 C52        -2.6850   -1.7640    1.5400 c3        1 MOL     -0.066579
    153 C53        -1.7440   -2.0780    0.3040 c3        1 MOL     -0.422529
    154 C54        -0.3610   -1.5720    0.6110 c         1 MOL      0.673759
    155 O22         0.5720   -2.1090    0.0770 o         1 MOL     -0.696095
    156 O23        -0.0880   -0.4880    1.1890 o         1 MOL     -0.696095
    157 H67        -4.3510   -1.3160   -0.3020 hn        1 MOL      0.162770
    158 H68        -3.9140   -3.5010    1.4670 h1        1 MOL      0.130348
    159 H69        -2.1970   -2.2130    2.4070 hc        1 MOL      0.059570
    160 H70        -2.8180   -0.6920    1.6690 hc        1 MOL      0.059570
    161 H71        -2.2310   -1.7060   -0.5890 hc        1 MOL      0.153502
    162 H72        -1.6050   -3.1630    0.2990 hc        1 MOL      0.153502
    163 N14        -5.4670   -0.7260    2.5140 n         1 MOL     -0.100795
    164 C55        -6.5600   -0.1660    3.3590 c3        1 MOL     -0.353182
    165 H73        -6.4150   -0.4780    4.3930 h1        1 MOL      0.118770
    166 H74        -6.5430    0.9220    3.3010 h1        1 MOL      0.118770
    167 H75        -7.5220   -0.5340    3.0010 h1        1 MOL      0.118770
    168 H76        -5.2490   -0.1130    1.7380 hn        1 MOL      0.134161
    169 Ca1         2.1370    0.0040   -0.0610 Ca        1 MOL      1.698042
    170 O24         4.1510    1.0920    1.7730 oh        1 MOL     -0.842344
    171 H77         3.6370    0.9040    2.5590 ho        1 MOL      0.397364
    172 H78         5.0650    1.0420    2.0620 ho        1 MOL      0.397364
    173 O25         1.9140    0.0870    2.6480 oh        1 MOL     -0.842344
    174 H79         1.0570   -0.1790    2.3080 ho        1 MOL      0.397364
    175 H80         1.9470   -0.2830    3.5310 ho        1 MOL      0.397364
@<TRIPOS>BOND
     1    1    2 1   
     2    1    4 1   
     3    1    5 1   
     4    1    6 1   
     5    2    3 2   
     6    2    7 1   
     7    7    8 1   
     8    7   15 1   
     9    8    9 1   
    10    8   11 1   
    11    8   16 1   
    12    9   10 2   
    13    9   19 1   
    14   11   12 1   
    15   11   17 1   
    16   11   18 1   
    17   12   13 1   
    18   12   14 1   
    19   19   20 1   
    20   19   24 1   
    21   20   21 1   
    22   20   23 1   
    23   20   25 1   
    24   21   22 2   
    25   21   29 1   
    26   23   26 1   
    27   23   27 1   
    28   23   28 1   
    29   29   30 1   
    30   29   37 1   
    31   30   31 1   
    32   30   33 1   
    33   30   38 1   
    34   31   32 2   
    35   31   41 1   
    36   33   34 1   
    37   33   39 1   
    38   33   40 1   
    39   34   35 1   
    40   34   36 1   
    41   41   42 1   
    42   41   45 1   
    43   42   43 1   
    44   42   46 1   
    45   42   47 1   
    46   43   44 2   
    47   43   48 1   
    48   48   49 1   
    49   48   56 1   
    50   49   50 1   
    51   49   52 1   
    52   49   57 1   
    53   50   51 2   
    54   50   62 1   
    55   52   53 1   
    56   52   58 1   
    57   52   59 1   
    58   53   54 1   
    59   53   55 2   
    60   54   60 1   
    61   54   61 1   
    62   62   63 1   
    63   62   66 1   
    64   63   64 1   
    65   63   67 1   
    66   63   68 1   
    67   64   65 2   
    68   64   69 1   
    69   69   70 1   
    70   69   76 1   
    71   70   71 1   
    72   70   73 1   
    73   70   77 1   
    74   71   72 2   
    75   71   83 1   
    76   73   74 1   
    77   73   75 1   
    78   73   78 1   
    79   74   80 1   
    80   74   81 1   
    81   74   82 1   
    82   75   79 1   
    83   83   84 1   
    84   83   91 1   
    85   84   85 1   
    86   84   87 1   
    87   84   92 1   
    88   85   86 2   
    89   85  102 1   
    90   87   88 1   
    91   87   89 1   
    92   87   93 1   
    93   88   90 1   
    94   88   94 1   
    95   88   95 1   
    96   89   96 1   
    97   89   97 1   
    98   89   98 1   
    99   90   99 1   
   100   90  100 1   
   101   90  101 1   
   102  102  103 1   
   103  102  110 1   
   104  103  104 1   
   105  103  106 1   
   106  103  111 1   
   107  104  105 2   
   108  104  114 1   
   109  106  107 1   
   110  106  112 1   
   111  106  113 1   
   112  107  108 1   
   113  107  109 1   
   114  114  115 1   
   115  114  125 1   
   116  115  116 1   
   117  115  118 1   
   118  115  126 1   
   119  116  117 2   
   120  116  134 1   
   121  118  119 1   
   122  118  127 1   
   123  118  128 1   
   124  119  120 ar  
   125  119  121 ar  
   126  120  122 ar  
   127  120  129 1   
   128  121  123 ar  
   129  121  130 1   
   130  122  124 ar  
   131  122  131 1   
   132  123  124 ar  
   133  123  132 1   
   134  124  133 1   
   135  134  135 1   
   136  134  140 1   
   137  135  136 1   
   138  135  138 1   
   139  135  141 1   
   140  136  137 2   
   141  136  148 1   
   142  138  139 1   
   143  138  142 1   
   144  138  143 1   
   145  139  140 1   
   146  139  144 1   
   147  139  145 1   
   148  140  146 1   
   149  140  147 1   
   150  148  149 1   
   151  148  157 1   
   152  149  150 1   
   153  149  152 1   
   154  149  158 1   
   155  150  151 2   
   156  150  163 1   
   157  152  153 1   
   158  152  159 1   
   159  152  160 1   
   160  153  154 1   
   161  153  161 1   
   162  153  162 1   
   163  154  155 1   
   164  154  156 1   
   165  163  164 1   
   166  163  168 1   
   167  164  165 1   
   168  164  166 1   
   169  164  167 1   
   170  170  171 1   
   171  170  172 1   
   172  173  174 1   
   173  173  175 1   
@<TRIPOS>SUBSTRUCTURE
     1 MOL         1 TEMP              0 ****  ****    0 ROOT
