@<TRIPOS>MOLECULE
MOL
  189   185     1     0     0
SMALL
resp


@<TRIPOS>ATOM
      1 C1         -0.1460    3.3000    6.1810 c3        1 MOL     -0.429395
      2 C2         -0.5800    3.0270    4.7200 c         1 MOL      0.674847
      3 O1         -0.4840    1.8940    4.1970 o         1 MOL     -0.580152
      4 H1         -0.1140    4.3760    6.3550 hc        1 MOL      0.113139
      5 H2         -0.8610    2.8430    6.8650 hc        1 MOL      0.113139
      6 H3          0.8440    2.8750    6.3520 hc        1 MOL      0.113139
      7 N1         -1.3170    3.9840    4.1060 n         1 MOL     -0.618129
      8 C3         -1.9170    3.7730    2.7680 c3        1 MOL      0.309093
      9 C4         -1.7810    4.9850    1.8560 c         1 MOL      0.434874
     10 O2         -1.7150    6.1250    2.3930 o         1 MOL     -0.604339
     11 C5         -3.3920    3.4000    3.0500 c3        1 MOL     -0.280352
     12 C6         -4.0800    2.7830    1.8670 c         1 MOL      0.715286
     13 O3         -3.3950    2.3540    0.8840 o         1 MOL     -0.709347
     14 O4         -5.2960    2.4620    1.9170 o         1 MOL     -0.709347
     15 H4         -1.4450    4.8730    4.5680 hn        1 MOL      0.320266
     16 H5         -1.3920    2.9320    2.3210 h1        1 MOL      0.049180
     17 H6         -3.8790    4.3110    3.4050 hc        1 MOL      0.072796
     18 H7         -3.5190    2.7110    3.8950 hc        1 MOL      0.072796
     19 N2         -1.7530    4.7900    0.5760 n         1 MOL     -0.055905
     20 C7         -1.7160    5.8710   -0.4720 c3        1 MOL     -0.272416
     21 C8         -2.6330    5.5580   -1.6690 c         1 MOL      0.616642
     22 O5         -3.0510    6.5160   -2.4020 o         1 MOL     -0.579321
     23 C9         -0.2260    6.0480   -0.9620 c3        1 MOL      0.119795
     24 C10         0.1590    7.2510   -1.8590 c3        1 MOL      0.169865
     25 C11         0.2970    4.7010   -1.6590 c3        1 MOL     -0.300055
     26 C12         0.1520    8.5730   -1.1180 c3        1 MOL     -0.228697
     27 H8         -1.7120    3.8180    0.3470 hn        1 MOL     -0.052023
     28 H9         -2.0930    6.7850   -0.0290 h1        1 MOL      0.143311
     29 H10         0.4650    6.1270   -0.1240 hc        1 MOL      0.032200
     30 H11        -0.4950    7.2260   -2.7270 hc        1 MOL     -0.028435
     31 H12         1.1150    7.0210   -2.3430 hc        1 MOL     -0.028435
     32 H13         1.3600    4.5240   -1.5040 hc        1 MOL      0.086844
     33 H14        -0.2420    3.8020   -1.3810 hc        1 MOL      0.086844
     34 H15         0.0710    4.7790   -2.7320 hc        1 MOL      0.086844
     35 H16         0.8470    8.5350   -0.2790 hc        1 MOL      0.038155
     36 H17         0.5100    9.3570   -1.7860 hc        1 MOL      0.038155
     37 H18        -0.8660    8.8830   -0.8990 hc        1 MOL      0.038155
     38 N3         -3.1820    4.3470   -1.7830 n         1 MOL     -0.468764
     39 C13        -3.9650    3.8940   -2.9310 c3        1 MOL      0.082313
     40 C14        -5.3550    3.2900   -2.6620 c         1 MOL      0.440074
     41 O6         -6.1800    3.2600   -3.6170 o         1 MOL     -0.560639
     42 C15        -3.0430    3.0860   -3.8630 c3        1 MOL     -0.135002
     43 C16        -2.5430    1.8040   -3.1660 c         1 MOL      0.748653
     44 O7         -2.9350    1.4800   -2.0380 o         1 MOL     -0.732570
     45 O8         -1.7080    1.0570   -3.7950 o         1 MOL     -0.732570
     46 H19        -2.8160    3.6810   -1.1120 hn        1 MOL      0.345984
     47 H20        -4.1930    4.7610   -3.5580 h1        1 MOL      0.068932
     48 H21        -2.1450    3.6820   -4.0550 hc        1 MOL      0.039534
     49 H22        -3.4310    2.8250   -4.8450 hc        1 MOL      0.039534
     50 N4         -5.6330    2.8910   -1.4000 n         1 MOL     -0.276358
     51 C17        -6.9310    2.3760   -0.9140 c3        1 MOL     -0.031387
     52 C18        -7.2310    0.9360   -1.3090 c         1 MOL      0.397707
     53 O9         -8.3740    0.5440   -1.2680 o         1 MOL     -0.607959
     54 H23        -4.9010    3.1120   -0.7360 hn        1 MOL      0.179485
     55 H24        -7.7880    3.0110   -1.1320 h1        1 MOL      0.083946
     56 H25        -6.9610    2.3670    0.1830 h1        1 MOL      0.083946
     57 N5         -6.2980    0.1070   -1.7430 n         1 MOL     -0.063506
     58 C19        -6.5150   -1.2380   -2.4010 c3        1 MOL     -0.095007
     59 C20        -6.8900   -2.3930   -1.5000 c         1 MOL      0.405535
     60 O10        -7.2160   -3.4700   -2.0990 o         1 MOL     -0.565361
     61 C21        -5.3810   -1.6140   -3.3490 c3        1 MOL     -0.231018
     62 C22        -4.0550   -1.8490   -2.5670 c         1 MOL      0.770112
     63 O11        -3.8930   -1.4140   -1.3460 o         1 MOL     -0.713648
     64 O12        -3.1540   -2.5670   -3.0640 o         1 MOL     -0.713648
     65 H26        -5.4000    0.5640   -1.8410 hn        1 MOL      0.142709
     66 H27        -7.3270   -0.9770   -3.0910 h1        1 MOL      0.116998
     67 H28        -5.2400   -0.8500   -4.1170 hc        1 MOL      0.079245
     68 H29        -5.6780   -2.5400   -3.8520 hc        1 MOL      0.079245
     69 N6         -6.8340   -2.2520   -0.2040 n         1 MOL     -0.131504
     70 C23        -7.1480   -3.2960    0.7970 c3        1 MOL     -0.261357
     71 C24        -5.8540   -3.9720    1.3630 c         1 MOL      0.548067
     72 O13        -5.9910   -4.7420    2.3280 o         1 MOL     -0.603391
     73 H30        -6.2990   -1.4290    0.0300 hn        1 MOL      0.157984
     74 H31        -7.7320   -4.0910    0.3370 h1        1 MOL      0.122790
     75 H32        -7.5670   -2.7480    1.6420 h1        1 MOL      0.122790
     76 N7         -4.6850   -3.7190    0.7950 n         1 MOL     -0.164057
     77 C25        -3.4570   -4.4640    1.1510 c3        1 MOL     -0.111500
     78 C26        -2.3330   -3.5190    1.5630 c         1 MOL      0.590070
     79 O14        -2.2680   -2.4120    1.1470 o         1 MOL     -0.583207
     80 C27        -2.9150   -5.4250    0.0420 c3        1 MOL      0.054153
     81 C28        -4.0900   -6.3560   -0.4390 c3        1 MOL     -0.119462
     82 C29        -3.6070   -7.4850   -1.3600 c         1 MOL      0.597497
     83 N8         -4.2270   -7.5770   -2.4940 n         1 MOL     -0.766760
     84 O15        -2.7140   -8.2780   -1.0540 o         1 MOL     -0.598106
     85 H33        -4.6050   -2.9870    0.1070 hn        1 MOL      0.199512
     86 H34        -3.6760   -5.0370    2.0550 h1        1 MOL      0.064442
     87 H35        -2.0580   -5.9840    0.4260 hc        1 MOL      0.038931
     88 H36        -2.6250   -4.8710   -0.8450 hc        1 MOL      0.038931
     89 H37        -4.9060   -5.8300   -0.9310 hc        1 MOL      0.039007
     90 H38        -4.5020   -6.8580    0.4300 hc        1 MOL      0.039007
     91 H39        -4.8410   -6.7970   -2.6710 hn        1 MOL      0.369231
     92 H40        -3.9500   -8.3750   -3.0440 hn        1 MOL      0.369231
     93 N9         -1.4240   -3.9330    2.4710 n         1 MOL     -0.575021
     94 C30        -0.1290   -3.1160    2.7290 c3        1 MOL      0.119607
     95 C31         0.9910   -3.5650    1.7980 c         1 MOL      0.452306
     96 O16         1.2640   -4.7800    1.6500 o         1 MOL     -0.565268
     97 C32         0.2310   -3.1090    4.2190 c3        1 MOL      0.190689
     98 C33         0.7430   -4.4470    4.8460 c3        1 MOL     -0.255862
     99 C34         1.2240   -1.9880    4.5300 c3        1 MOL     -0.255862
    100 H41        -1.5780   -4.8520    2.8650 hn        1 MOL      0.310779
    101 H42        -0.3260   -2.0860    2.4270 h1        1 MOL      0.077001
    102 H43        -0.7240   -2.8240    4.6840 hc        1 MOL      0.001304
    103 H44         1.7380   -4.8080    4.5820 hc        1 MOL      0.053653
    104 H45         0.6670   -4.1870    5.9070 hc        1 MOL      0.053653
    105 H46        -0.0290   -5.2040    4.7000 hc        1 MOL      0.053653
    106 H47         2.2110   -2.0840    4.0650 hc        1 MOL      0.053653
    107 H48         0.8340   -1.0090    4.2620 hc        1 MOL      0.053653
    108 H49         1.4210   -1.9310    5.6000 hc        1 MOL      0.053653
    109 N10         1.5390   -2.5950    1.0310 n         1 MOL     -0.107510
    110 C35         2.6300   -2.6290    0.0020 c3        1 MOL      0.183375
    111 C36         4.0520   -2.4620    0.6660 c         1 MOL      0.048784
    112 O17         4.1870   -2.0340    1.8250 o         1 MOL     -0.347256
    113 C37         2.4180   -1.5200   -0.9920 c3        1 MOL     -0.122424
    114 C38         3.4820   -1.3840   -2.1120 c         1 MOL      0.784463
    115 N11         3.7010   -2.4500   -2.8390 n         1 MOL     -0.890970
    116 O18         4.2080   -0.4020   -2.2700 o         1 MOL     -0.571788
    117 H50         1.2100   -1.6710    1.2620 hn        1 MOL      0.001024
    118 H51         2.5820   -3.5490   -0.5840 h1        1 MOL     -0.003346
    119 H52         2.2650   -0.5950   -0.4410 hc        1 MOL      0.020016
    120 H53         1.4240   -1.6390   -1.4200 hc        1 MOL      0.020016
    121 H54         3.2720   -3.3330   -2.6070 hn        1 MOL      0.402502
    122 H55         4.3620   -2.3050   -3.5830 hn        1 MOL      0.402502
    123 N12         5.0950   -2.7160   -0.0570 n         1 MOL      0.138378
    124 C39         6.5030   -2.7180    0.3900 c3        1 MOL      0.004860
    125 C40         7.1860   -1.3600    0.6240 c         1 MOL      0.416937
    126 O19         8.2130   -1.2730    1.3160 o         1 MOL     -0.559567
    127 C41         7.2520   -3.4970   -0.6370 c3        1 MOL     -0.098455
    128 C42         7.3580   -3.0380   -2.1300 ca        1 MOL      0.046234
    129 C43         8.0280   -1.8620   -2.5400 ca        1 MOL     -0.186807
    130 C44         6.6160   -3.8300   -3.0430 ca        1 MOL     -0.186807
    131 C45         8.0160   -1.5690   -3.9110 ca        1 MOL     -0.304529
    132 C46         6.5950   -3.4790   -4.3890 ca        1 MOL     -0.304529
    133 C47         7.2930   -2.3360   -4.8760 ca        1 MOL      0.443920
    134 O20         7.2680   -2.0780   -6.1860 oh        1 MOL     -0.567403
    135 H56         4.9470   -3.1550   -0.9580 hn        1 MOL      0.023983
    136 H57         6.6070   -3.2960    1.3140 h1        1 MOL      0.059744
    137 H58         6.8960   -4.5290   -0.6520 hc        1 MOL      0.038212
    138 H59         8.2970   -3.5560   -0.3380 hc        1 MOL      0.038212
    139 H60         8.5850   -1.2050   -1.8880 ha        1 MOL      0.160694
    140 H61         6.0030   -4.6600   -2.7350 ha        1 MOL      0.160694
    141 H62         8.4610   -0.6870   -4.3480 ha        1 MOL      0.141909
    142 H63         6.1000   -4.0820   -5.1320 ha        1 MOL      0.141909
    143 H64         7.9440   -1.4550   -6.4440 ho        1 MOL      0.428640
    144 N13         6.5660   -0.3030    0.0540 n         1 MOL     -0.012183
    145 C48         6.8450    1.1020    0.3060 c3        1 MOL     -0.233680
    146 C49         5.9010    1.7050    1.3650 c         1 MOL      0.450982
    147 O21         6.1700    2.7860    1.8750 o         1 MOL     -0.517710
    148 C50         6.9240    1.7190   -1.1300 c3        1 MOL      0.077762
    149 C51         7.4740    3.1000   -1.2480 c3        1 MOL     -0.255522
    150 C52         7.4840    3.6160   -2.7120 c         1 MOL      0.685882
    151 O22         8.3610    3.1720   -3.5050 o         1 MOL     -0.732779
    152 O23         6.5580    4.3210   -3.1550 o         1 MOL     -0.732779
    153 H65         5.7120   -0.4320   -0.4690 hn        1 MOL      0.093622
    154 H66         7.8320    1.1780    0.7800 h1        1 MOL      0.131257
    155 H67         5.9610    1.6790   -1.6360 hc        1 MOL      0.068248
    156 H68         7.4980    0.9990   -1.7100 hc        1 MOL      0.068248
    157 H69         8.5190    3.0780   -0.9420 hc        1 MOL      0.021986
    158 H70         7.0340    3.8590   -0.6120 hc        1 MOL      0.021986
    159 N14         4.7680    1.0870    1.6490 n         1 MOL     -0.111855
    160 C53         3.8640    1.5740    2.7340 c3        1 MOL     -0.035616
    161 C54         4.2610    1.0280    4.0600 c         1 MOL      0.388994
    162 O24         4.2970    1.6960    5.0570 o         1 MOL     -0.545471
    163 C55         2.3830    1.1570    2.4650 c3        1 MOL      0.124709
    164 C56         1.7750    1.9280    1.2560 c3        1 MOL      0.023570
    165 C57         0.5070    1.2480    0.7470 c         1 MOL      0.661485
    166 O25         0.1650    0.0870    1.0490 o         1 MOL     -0.670402
    167 O26        -0.3790    1.8280    0.0930 o         1 MOL     -0.670402
    168 H71         4.6950    0.1390    1.2970 hn        1 MOL     -0.002521
    169 H72         3.9870    2.6560    2.8180 h1        1 MOL      0.080119
    170 H73         1.7730    1.5130    3.2870 hc        1 MOL     -0.012219
    171 H74         2.4510    0.0690    2.3880 hc        1 MOL     -0.012219
    172 H75         2.5170    1.9580    0.4600 hc        1 MOL      0.009447
    173 H76         1.5330    2.9640    1.5260 hc        1 MOL      0.009447
    174 N15         4.5830   -0.2690    4.1120 n         1 MOL     -0.058833
    175 C58         5.0320   -1.0440    5.2970 c3        1 MOL     -0.100528
    176 H77         5.2270   -0.3610    6.1240 h1        1 MOL      0.053862
    177 H78         4.2550   -1.7500    5.5860 h1        1 MOL      0.053862
    178 H79         5.9450   -1.5870    5.0530 h1        1 MOL      0.053862
    179 H80         4.5200   -0.7610    3.2260 hn        1 MOL      0.057580
    180 Ca1        -2.3160    0.1190    0.1400 Ca        1 MOL      1.712603
    181 O27        -4.8700   -0.2430    1.2580 oh        1 MOL     -0.786779
    182 H81        -5.0400   -0.3730    2.1860 ho        1 MOL      0.396750
    183 H82        -5.1790    0.6440    1.0790 ho        1 MOL      0.396750
    184 O28        -2.1670    0.0550    2.9370 oh        1 MOL     -0.786779
    185 H83        -2.4980    0.1320    3.8280 ho        1 MOL      0.396750
    186 H84        -1.2590    0.3370    2.9920 ho        1 MOL      0.396750
    187 O29        -1.1740   -1.0750   -1.9100 oh        1 MOL     -0.786779
    188 H85        -1.2770   -0.4890   -2.6540 ho        1 MOL      0.396750
    189 H86        -1.6790   -1.8540   -2.1350 ho        1 MOL      0.396750
@<TRIPOS>BOND
     1    1    2 1   
     2    1    4 1   
     3    1    5 1   
     4    1    6 1   
     5    2    3 2   
     6    2    7 1   
     7    7    8 1   
     8    7   15 1   
     9    8    9 1   
    10    8   11 1   
    11    8   16 1   
    12    9   10 2   
    13    9   19 1   
    14   11   12 1   
    15   11   17 1   
    16   11   18 1   
    17   12   13 1   
    18   12   14 1   
    19   19   20 1   
    20   19   27 1   
    21   20   21 1   
    22   20   23 1   
    23   20   28 1   
    24   21   22 2   
    25   21   38 1   
    26   23   24 1   
    27   23   25 1   
    28   23   29 1   
    29   24   26 1   
    30   24   30 1   
    31   24   31 1   
    32   25   32 1   
    33   25   33 1   
    34   25   34 1   
    35   26   35 1   
    36   26   36 1   
    37   26   37 1   
    38   38   39 1   
    39   38   46 1   
    40   39   40 1   
    41   39   42 1   
    42   39   47 1   
    43   40   41 2   
    44   40   50 1   
    45   42   43 1   
    46   42   48 1   
    47   42   49 1   
    48   43   44 1   
    49   43   45 1   
    50   50   51 1   
    51   50   54 1   
    52   51   52 1   
    53   51   55 1   
    54   51   56 1   
    55   52   53 2   
    56   52   57 1   
    57   57   58 1   
    58   57   65 1   
    59   58   59 1   
    60   58   61 1   
    61   58   66 1   
    62   59   60 2   
    63   59   69 1   
    64   61   62 1   
    65   61   67 1   
    66   61   68 1   
    67   62   63 1   
    68   62   64 1   
    69   69   70 1   
    70   69   73 1   
    71   70   71 1   
    72   70   74 1   
    73   70   75 1   
    74   71   72 2   
    75   71   76 1   
    76   76   77 1   
    77   76   85 1   
    78   77   78 1   
    79   77   80 1   
    80   77   86 1   
    81   78   79 2   
    82   78   93 1   
    83   80   81 1   
    84   80   87 1   
    85   80   88 1   
    86   81   82 1   
    87   81   89 1   
    88   81   90 1   
    89   82   83 1   
    90   82   84 2   
    91   83   91 1   
    92   83   92 1   
    93   93   94 1   
    94   93  100 1   
    95   94   95 1   
    96   94   97 1   
    97   94  101 1   
    98   95   96 2   
    99   95  109 1   
   100   97   98 1   
   101   97   99 1   
   102   97  102 1   
   103   98  103 1   
   104   98  104 1   
   105   98  105 1   
   106   99  106 1   
   107   99  107 1   
   108   99  108 1   
   109  109  110 1   
   110  109  117 1   
   111  110  111 1   
   112  110  113 1   
   113  110  118 1   
   114  111  112 2   
   115  111  123 1   
   116  113  114 1   
   117  113  119 1   
   118  113  120 1   
   119  114  115 1   
   120  114  116 2   
   121  115  121 1   
   122  115  122 1   
   123  123  124 1   
   124  123  135 1   
   125  124  125 1   
   126  124  127 1   
   127  124  136 1   
   128  125  126 2   
   129  125  144 1   
   130  127  128 1   
   131  127  137 1   
   132  127  138 1   
   133  128  129 ar  
   134  128  130 ar  
   135  129  131 ar  
   136  129  139 1   
   137  130  132 ar  
   138  130  140 1   
   139  131  133 ar  
   140  131  141 1   
   141  132  133 ar  
   142  132  142 1   
   143  133  134 1   
   144  134  143 1   
   145  144  145 1   
   146  144  153 1   
   147  145  146 1   
   148  145  148 1   
   149  145  154 1   
   150  146  147 2   
   151  146  159 1   
   152  148  149 1   
   153  148  155 1   
   154  148  156 1   
   155  149  150 1   
   156  149  157 1   
   157  149  158 1   
   158  150  151 1   
   159  150  152 1   
   160  159  160 1   
   161  159  168 1   
   162  160  161 1   
   163  160  163 1   
   164  160  169 1   
   165  161  162 2   
   166  161  174 1   
   167  163  164 1   
   168  163  170 1   
   169  163  171 1   
   170  164  165 1   
   171  164  172 1   
   172  164  173 1   
   173  165  166 1   
   174  165  167 1   
   175  174  175 1   
   176  174  179 1   
   177  175  176 1   
   178  175  177 1   
   179  175  178 1   
   180  181  182 1   
   181  181  183 1   
   182  184  185 1   
   183  184  186 1   
   184  187  188 1   
   185  187  189 1   
@<TRIPOS>SUBSTRUCTURE
     1 MOL         1 TEMP              0 ****  ****    0 ROOT
