@<TRIPOS>MOLECULE
MOL
  189   185     1     0     0
SMALL
resp


@<TRIPOS>ATOM
      1 C1         -0.2550    0.3970    6.7970 c3        1 MOL     -0.283384
      2 C2         -0.4900    0.6560    5.2620 c         1 MOL      0.703995
      3 O1          0.3420    1.3230    4.6670 o         1 MOL     -0.609225
      4 H1         -1.0110    0.9300    7.3750 hc        1 MOL      0.077351
      5 H2         -0.3300   -0.6710    7.0010 hc        1 MOL      0.077351
      6 H3          0.7350    0.7530    7.0800 hc        1 MOL      0.077351
      7 N1         -1.5980    0.1960    4.6480 n         1 MOL     -0.598159
      8 C3         -2.0830    0.5740    3.3260 c3        1 MOL      0.174661
      9 C4         -2.3930    2.0410    3.2250 c         1 MOL      0.492742
     10 O2         -3.3750    2.5570    3.7280 o         1 MOL     -0.560983
     11 C5         -3.3060   -0.2140    2.8330 c3        1 MOL     -0.253182
     12 C6         -3.8700    0.1720    1.4890 c         1 MOL      0.676528
     13 O3         -3.1690    0.8300    0.6660 o         1 MOL     -0.583302
     14 O4         -5.0560   -0.1610    1.3170 o         1 MOL     -0.583302
     15 H4         -2.1420   -0.4500    5.2170 hn        1 MOL      0.303728
     16 H5         -1.2750    0.3120    2.6360 h1        1 MOL      0.024292
     17 H6         -4.1430   -0.1170    3.5200 hc        1 MOL      0.065877
     18 H7         -3.0370   -1.2710    2.7340 hc        1 MOL      0.065877
     19 N2         -1.5520    2.7950    2.5850 n         1 MOL     -0.119349
     20 C7         -1.5210    4.2700    2.3470 c3        1 MOL     -0.026427
     21 C8         -2.7240    4.7760    1.4980 c         1 MOL      0.544002
     22 O5         -3.2490    5.8070    1.7470 o         1 MOL     -0.554394
     23 C9         -0.2120    4.8830    1.8010 c3        1 MOL     -0.245263
     24 C10         0.1140    4.4570    0.4050 c3        1 MOL      0.233003
     25 C11         1.5890    4.5800   -0.0240 c3        1 MOL     -0.159293
     26 C12         1.8750    3.8420   -1.3360 c3        1 MOL      0.173482
     27 N3          0.8850    4.2780   -2.3600 n4        1 MOL     -0.375811
     28 H8         -0.7680    2.2640    2.2280 hn        1 MOL      0.182249
     29 H9         -1.6970    4.7150    3.3290 h1        1 MOL      0.085741
     30 H10         0.5160    4.4750    2.5080 hc        1 MOL      0.075126
     31 H11        -0.2370    5.9660    1.8260 hc        1 MOL      0.075126
     32 H12        -0.5340    5.0540   -0.2270 hc        1 MOL      0.018000
     33 H13        -0.2350    3.4260    0.3080 hc        1 MOL      0.018000
     34 H14         2.2450    4.1270    0.7220 hc        1 MOL      0.026229
     35 H15         1.8880    5.6240   -0.1350 hc        1 MOL      0.026229
     36 H16         1.7120    2.7810   -1.1460 hx        1 MOL     -0.010143
     37 H17         2.9430    3.8730   -1.5460 hx        1 MOL     -0.010143
     38 H18         0.7710    5.2620   -2.5310 hn        1 MOL      0.295200
     39 H19         0.9650    3.8960   -3.2960 hn        1 MOL      0.295200
     40 H20        -0.0510    3.9780   -2.1420 hn        1 MOL      0.295200
     41 N4         -3.0900    3.9710    0.5210 n         1 MOL      0.056797
     42 C13        -4.1130    4.2890   -0.4200 c3        1 MOL     -0.095631
     43 C14        -5.5330    3.8280   -0.0500 c         1 MOL      0.514004
     44 O6         -6.4830    4.5520   -0.4260 o         1 MOL     -0.549432
     45 C15        -3.8180    3.6850   -1.7650 c3        1 MOL      0.092400
     46 C16        -2.3440    3.6460   -2.1320 c         1 MOL      0.653846
     47 O7         -1.6960    2.5880   -1.9640 o         1 MOL     -0.689525
     48 O8         -1.8680    4.6440   -2.6680 o         1 MOL     -0.689525
     49 H21        -2.6050    3.0820    0.4590 hn        1 MOL     -0.456631
     50 H22        -4.0760    5.3630   -0.6030 h1        1 MOL      0.081117
     51 H23        -4.3440    4.3530   -2.4520 hc        1 MOL     -0.010547
     52 H24        -4.2290    2.6790   -1.8830 hc        1 MOL     -0.010547
     53 N5         -5.7420    2.7150    0.6580 n         1 MOL     -0.293124
     54 C17        -7.1050    2.1530    0.8480 c3        1 MOL     -0.128502
     55 C18        -7.5210    1.2410   -0.3300 c         1 MOL      0.483625
     56 O9         -8.7060    1.2170   -0.6920 o         1 MOL     -0.561615
     57 H25        -4.9590    2.1320    0.9110 hn        1 MOL      0.253078
     58 H26        -7.8650    2.9160    1.0050 h1        1 MOL      0.110744
     59 H27        -7.1430    1.5520    1.7610 h1        1 MOL      0.110744
     60 N6         -6.5830    0.4380   -0.8820 n         1 MOL     -0.201918
     61 C19        -6.9870   -0.5570   -1.8960 c3        1 MOL     -0.009026
     62 C20        -7.0550   -1.9460   -1.2990 c         1 MOL      0.419886
     63 O10        -7.5930   -2.8220   -1.9930 o         1 MOL     -0.539159
     64 C21        -6.0280   -0.3970   -3.1150 c3        1 MOL     -0.245836
     65 C22        -4.5700   -0.4350   -2.7170 c         1 MOL      0.896815
     66 O11        -3.7640    0.3140   -3.2740 o         1 MOL     -0.822768
     67 O12        -4.0700   -1.2430   -1.9250 o         1 MOL     -0.822768
     68 H28        -5.7390    0.3410   -0.3470 hn        1 MOL      0.093420
     69 H29        -8.0330   -0.4420   -2.1820 h1        1 MOL      0.120361
     70 H30        -6.2260    0.5860   -3.5560 hc        1 MOL      0.079566
     71 H31        -6.2540   -1.0940   -3.9260 hc        1 MOL      0.079566
     72 N7         -6.5450   -2.1900   -0.0740 n         1 MOL     -0.177535
     73 C23        -6.5350   -3.5850    0.3680 c3        1 MOL     -0.189998
     74 C24        -5.2390   -4.3810    0.0350 c         1 MOL      0.501295
     75 O13        -5.2400   -5.6010    0.2330 o         1 MOL     -0.566101
     76 H32        -6.1660   -1.4340    0.4830 hn        1 MOL      0.182824
     77 H33        -7.4240   -4.0830   -0.0270 h1        1 MOL      0.107082
     78 H34        -6.6050   -3.4770    1.4440 h1        1 MOL      0.107082
     79 N8         -4.1940   -3.7540   -0.4050 n         1 MOL     -0.092900
     80 C25        -2.9190   -4.3470   -0.7310 c3        1 MOL     -0.318047
     81 C26        -1.6370   -3.5580   -0.3880 c         1 MOL      0.720966
     82 O14        -1.6420   -2.3360   -0.4430 o         1 MOL     -0.692796
     83 C27        -2.9230   -4.7300   -2.2690 c3        1 MOL      0.521410
     84 C28        -3.6910   -5.9640   -2.5780 c3        1 MOL     -0.496832
     85 O15        -3.3430   -3.6770   -3.1080 oh        1 MOL     -0.621150
     86 H35        -4.3480   -2.7580   -0.4920 hn        1 MOL      0.179631
     87 H36        -2.9380   -5.2540   -0.1350 h1        1 MOL      0.108609
     88 H37        -1.8980   -5.0110   -2.5340 h1        1 MOL     -0.021660
     89 H38        -3.9020   -3.1220   -2.5600 ho        1 MOL      0.381682
     90 H39        -3.3070   -6.8080   -2.0080 hc        1 MOL      0.129016
     91 H40        -4.7640   -5.8880   -2.4110 hc        1 MOL      0.129016
     92 H41        -3.4560   -6.1820   -3.6210 hc        1 MOL      0.129016
     93 N9         -0.5750   -4.2510   -0.0090 n         1 MOL     -0.646718
     94 C29         0.6660   -3.7290    0.5180 c3        1 MOL      0.217720
     95 C30         1.8230   -3.8890   -0.4130 c         1 MOL      0.352632
     96 O16         2.2410   -4.9270   -0.9250 o         1 MOL     -0.577413
     97 C31         0.8630   -4.1770    2.0170 c3        1 MOL      0.032663
     98 C32        -0.0770   -3.2180    2.8330 c3        1 MOL      0.027648
     99 C33         2.3370   -4.0690    2.5180 c3        1 MOL     -0.246947
    100 C34         0.2260   -3.4570    4.3100 c3        1 MOL     -0.131102
    101 H42        -0.6500   -5.2610   -0.0180 hn        1 MOL      0.319914
    102 H43         0.5030   -2.6600    0.5400 h1        1 MOL      0.106948
    103 H44         0.4970   -5.2090    2.0210 hc        1 MOL      0.028715
    104 H45        -1.1150   -3.5100    2.6600 hc        1 MOL      0.016593
    105 H46         0.1520   -2.1840    2.5590 hc        1 MOL      0.016593
    106 H47         2.4050   -4.6340    3.4500 hc        1 MOL      0.059085
    107 H48         2.9670   -4.5110    1.7440 hc        1 MOL      0.059085
    108 H49         2.5510   -3.0110    2.6450 hc        1 MOL      0.059085
    109 H50         0.1750   -4.5230    4.5120 hc        1 MOL      0.031177
    110 H51         1.2010   -3.0460    4.5750 hc        1 MOL      0.031177
    111 H52        -0.4730   -3.0580    5.0480 hc        1 MOL      0.031177
    112 N10         2.4220   -2.7830   -0.6820 n         1 MOL      0.038659
    113 C35         3.6200   -2.7350   -1.5870 c3        1 MOL     -0.034601
    114 C36         4.9370   -2.6140   -0.8270 c         1 MOL      0.266193
    115 O17         4.9080   -2.5460    0.3730 o         1 MOL     -0.289310
    116 C37         3.4270   -1.5380   -2.5600 c3        1 MOL      0.253322
    117 C38         2.2250   -1.5930   -3.5200 c3        1 MOL     -0.199058
    118 O18         3.3930   -0.2880   -1.8570 oh        1 MOL     -0.665038
    119 H53         1.9140   -1.9710   -0.3500 hn        1 MOL      0.074203
    120 H54         3.7340   -3.6100   -2.2350 h1        1 MOL      0.072064
    121 H55         4.3020   -1.5120   -3.2000 h1        1 MOL      0.010910
    122 H56         2.5510   -0.2420   -1.4010 ho        1 MOL      0.369507
    123 H57         1.3000   -1.8650   -3.0120 hc        1 MOL      0.045214
    124 H58         2.0530   -0.6380   -4.0340 hc        1 MOL      0.045214
    125 H59         2.4890   -2.3530   -4.2640 hc        1 MOL      0.045214
    126 N11         6.0870   -2.5710   -1.5330 n         1 MOL     -0.214365
    127 C39         7.3750   -2.1870   -0.8850 c3        1 MOL     -0.152159
    128 C40         7.2900   -0.9190    0.0610 c         1 MOL      0.306440
    129 O19         7.5580   -1.0190    1.2510 o         1 MOL     -0.443295
    130 C41         8.5490   -1.9820   -1.8970 c3        1 MOL      0.237879
    131 C42         8.8980   -3.1410   -2.7860 c3        1 MOL     -0.467540
    132 O20         8.0290   -1.0270   -2.8030 oh        1 MOL     -0.645208
    133 H60         6.0740   -2.7200   -2.5310 hn        1 MOL      0.256396
    134 H61         7.5750   -3.0870   -0.3020 h1        1 MOL      0.143214
    135 H62         9.4610   -1.7180   -1.3680 h1        1 MOL      0.094323
    136 H63         8.4910   -1.0760   -3.6430 ho        1 MOL      0.420324
    137 H64         7.9770   -3.3650   -3.3230 hc        1 MOL      0.139064
    138 H65         9.8240   -2.8990   -3.2930 hc        1 MOL      0.139064
    139 H66         9.0720   -4.0480   -2.2100 hc        1 MOL      0.139064
    140 N12         6.7950    0.2450   -0.3870 n         1 MOL     -0.099279
    141 C43         6.5770    1.5340    0.3160 c3        1 MOL     -0.192752
    142 C44         5.6690    1.4700    1.5880 c         1 MOL      0.474772
    143 O21         5.7800    2.3200    2.4520 o         1 MOL     -0.521348
    144 C45         5.9950    2.5980   -0.6470 c3        1 MOL     -0.111334
    145 C46         7.1070    3.2150   -1.5270 c3        1 MOL      0.162994
    146 C47         6.4950    4.0930   -2.5860 c3        1 MOL     -0.211081
    147 C48         7.3690    4.9790   -3.4140 c3        1 MOL      0.176019
    148 N13         6.5820    5.9820   -4.1510 n4        1 MOL     -0.421825
    149 H67         6.7050    0.2180   -1.3920 hn        1 MOL      0.228672
    150 H68         7.5310    1.9130    0.6700 h1        1 MOL      0.131103
    151 H69         5.5780    3.4560   -0.1230 hc        1 MOL      0.086156
    152 H70         5.2600    2.1280   -1.2950 hc        1 MOL      0.086156
    153 H71         7.7340    2.4260   -1.9380 hc        1 MOL     -0.012418
    154 H72         7.7790    3.7820   -0.8810 hc        1 MOL     -0.012418
    155 H73         5.8710    4.7790   -2.0140 hc        1 MOL      0.056892
    156 H74         5.8540    3.4870   -3.2240 hc        1 MOL      0.056892
    157 H75         8.0750    4.4780   -4.0670 hx        1 MOL      0.063112
    158 H76         8.0360    5.4950   -2.7190 hx        1 MOL      0.063112
    159 H77         6.0260    6.5860   -3.5780 hn        1 MOL      0.342883
    160 H78         7.1380    6.6490   -4.6650 hn        1 MOL      0.342883
    161 H79         5.9960    5.5310   -4.8440 hn        1 MOL      0.342883
    162 N14         4.7550    0.5080    1.6280 n         1 MOL     -0.037605
    163 C49         3.8120    0.2830    2.6700 c3        1 MOL     -0.259448
    164 C50         4.2770   -0.7740    3.7620 c         1 MOL      0.534440
    165 O22         3.9700   -0.7110    4.9610 o         1 MOL     -0.538253
    166 C51         2.4480   -0.0800    2.0350 c3        1 MOL      0.067818
    167 C52         1.9340    1.0140    1.0730 c3        1 MOL      0.218740
    168 C53         0.7730    0.4520    0.3260 c         1 MOL      0.577021
    169 O23         0.9050   -0.4870   -0.5370 o         1 MOL     -0.669799
    170 O24        -0.3780    0.9130    0.5650 o         1 MOL     -0.669799
    171 H80         4.8550   -0.2320    0.9460 hn        1 MOL     -0.033670
    172 H81         3.7480    1.2460    3.1720 h1        1 MOL      0.128437
    173 H82         1.7330   -0.4060    2.7880 hc        1 MOL      0.036398
    174 H83         2.6620   -0.9890    1.4780 hc        1 MOL      0.036398
    175 H84         2.6980    1.4300    0.4180 hc        1 MOL     -0.033985
    176 H85         1.5690    1.7950    1.7410 hc        1 MOL     -0.033985
    177 N15         5.0220   -1.7570    3.2390 n         1 MOL     -0.138802
    178 C54         5.7000   -2.7980    4.0320 c3        1 MOL     -0.152372
    179 H86         6.7710   -2.5930    4.0600 h1        1 MOL      0.077766
    180 H87         5.3040   -2.7980    5.0480 h1        1 MOL      0.077766
    181 H88         5.5280   -3.7730    3.5760 h1        1 MOL      0.077766
    182 H89         5.0580   -1.8270    2.2300 hn        1 MOL      0.115371
    183 Ca1        -1.8590    0.0970   -1.5640 Ca        1 MOL      1.830479
    184 O25        -1.4850   -1.7570   -3.4850 oh        1 MOL     -0.840281
    185 H90        -1.2200   -1.9330   -4.3920 ho        1 MOL      0.403469
    186 H91        -2.1970   -2.3600   -3.3200 ho        1 MOL      0.403469
    187 O26        -0.2760    0.8410   -3.6660 oh        1 MOL     -0.840281
    188 H92        -0.3520    1.7420   -3.9900 ho        1 MOL      0.403469
    189 H93        -0.3480    0.2940   -4.4430 ho        1 MOL      0.403469
@<TRIPOS>BOND
     1    1    2 1   
     2    1    4 1   
     3    1    5 1   
     4    1    6 1   
     5    2    3 2   
     6    2    7 1   
     7    7    8 1   
     8    7   15 1   
     9    8    9 1   
    10    8   11 1   
    11    8   16 1   
    12    9   10 2   
    13    9   19 1   
    14   11   12 1   
    15   11   17 1   
    16   11   18 1   
    17   12   13 1   
    18   12   14 1   
    19   19   20 1   
    20   19   28 1   
    21   20   21 1   
    22   20   23 1   
    23   20   29 1   
    24   21   22 2   
    25   21   41 1   
    26   23   24 1   
    27   23   30 1   
    28   23   31 1   
    29   24   25 1   
    30   24   32 1   
    31   24   33 1   
    32   25   26 1   
    33   25   34 1   
    34   25   35 1   
    35   26   27 1   
    36   26   36 1   
    37   26   37 1   
    38   27   38 1   
    39   27   39 1   
    40   27   40 1   
    41   41   42 1   
    42   41   49 1   
    43   42   43 1   
    44   42   45 1   
    45   42   50 1   
    46   43   44 2   
    47   43   53 1   
    48   45   46 1   
    49   45   51 1   
    50   45   52 1   
    51   46   47 1   
    52   46   48 1   
    53   53   54 1   
    54   53   57 1   
    55   54   55 1   
    56   54   58 1   
    57   54   59 1   
    58   55   56 2   
    59   55   60 1   
    60   60   61 1   
    61   60   68 1   
    62   61   62 1   
    63   61   64 1   
    64   61   69 1   
    65   62   63 2   
    66   62   72 1   
    67   64   65 1   
    68   64   70 1   
    69   64   71 1   
    70   65   66 1   
    71   65   67 1   
    72   72   73 1   
    73   72   76 1   
    74   73   74 1   
    75   73   77 1   
    76   73   78 1   
    77   74   75 2   
    78   74   79 1   
    79   79   80 1   
    80   79   86 1   
    81   80   81 1   
    82   80   83 1   
    83   80   87 1   
    84   81   82 2   
    85   81   93 1   
    86   83   84 1   
    87   83   85 1   
    88   83   88 1   
    89   84   90 1   
    90   84   91 1   
    91   84   92 1   
    92   85   89 1   
    93   93   94 1   
    94   93  101 1   
    95   94   95 1   
    96   94   97 1   
    97   94  102 1   
    98   95   96 2   
    99   95  112 1   
   100   97   98 1   
   101   97   99 1   
   102   97  103 1   
   103   98  100 1   
   104   98  104 1   
   105   98  105 1   
   106   99  106 1   
   107   99  107 1   
   108   99  108 1   
   109  100  109 1   
   110  100  110 1   
   111  100  111 1   
   112  112  113 1   
   113  112  119 1   
   114  113  114 1   
   115  113  116 1   
   116  113  120 1   
   117  114  115 2   
   118  114  126 1   
   119  116  117 1   
   120  116  118 1   
   121  116  121 1   
   122  117  123 1   
   123  117  124 1   
   124  117  125 1   
   125  118  122 1   
   126  126  127 1   
   127  126  133 1   
   128  127  128 1   
   129  127  130 1   
   130  127  134 1   
   131  128  129 2   
   132  128  140 1   
   133  130  131 1   
   134  130  132 1   
   135  130  135 1   
   136  131  137 1   
   137  131  138 1   
   138  131  139 1   
   139  132  136 1   
   140  140  141 1   
   141  140  149 1   
   142  141  142 1   
   143  141  144 1   
   144  141  150 1   
   145  142  143 2   
   146  142  162 1   
   147  144  145 1   
   148  144  151 1   
   149  144  152 1   
   150  145  146 1   
   151  145  153 1   
   152  145  154 1   
   153  146  147 1   
   154  146  155 1   
   155  146  156 1   
   156  147  148 1   
   157  147  157 1   
   158  147  158 1   
   159  148  159 1   
   160  148  160 1   
   161  148  161 1   
   162  162  163 1   
   163  162  171 1   
   164  163  164 1   
   165  163  166 1   
   166  163  172 1   
   167  164  165 2   
   168  164  177 1   
   169  166  167 1   
   170  166  173 1   
   171  166  174 1   
   172  167  168 1   
   173  167  175 1   
   174  167  176 1   
   175  168  169 1   
   176  168  170 1   
   177  177  178 1   
   178  177  182 1   
   179  178  179 1   
   180  178  180 1   
   181  178  181 1   
   182  184  185 1   
   183  184  186 1   
   184  187  188 1   
   185  187  189 1   
@<TRIPOS>SUBSTRUCTURE
     1 MOL         1 TEMP              0 ****  ****    0 ROOT
