@<TRIPOS>MOLECULE
MOL
  179   176     1     0     0
SMALL
resp


@<TRIPOS>ATOM
      1 C1          1.8370    3.9980    3.9490 c3        1 MOL     -0.572960
      2 C2          1.0560    3.5040    2.7440 c         1 MOL      0.671568
      3 O1          1.4790    3.4210    1.6170 o         1 MOL     -0.570395
      4 H1          1.2400    3.8580    4.8510 hc        1 MOL      0.150465
      5 H2          2.7660    3.4330    4.0370 hc        1 MOL      0.150465
      6 H3          2.0660    5.0560    3.8260 hc        1 MOL      0.150465
      7 N1         -0.2410    3.2390    3.0150 n         1 MOL     -0.495853
      8 C3         -1.2200    2.7260    1.9720 c3        1 MOL      0.073734
      9 C4         -2.0170    3.8920    1.3400 c         1 MOL      0.327374
     10 O2         -3.0920    4.2840    1.8250 o         1 MOL     -0.478290
     11 C5         -2.1460    1.6780    2.6480 c3        1 MOL      0.100261
     12 C6         -3.2400    1.0760    1.7530 c         1 MOL      0.588801
     13 O3         -4.3810    0.8490    2.1530 o         1 MOL     -0.668663
     14 O4         -2.9330    0.7080    0.6070 o         1 MOL     -0.668663
     15 H4         -0.5040    3.2130    3.9850 hn        1 MOL      0.306645
     16 H5         -0.7240    2.1440    1.1980 h1        1 MOL     -0.071158
     17 H6         -2.5700    2.0690    3.5740 hc        1 MOL     -0.016879
     18 H7         -1.4230    0.9530    3.0180 hc        1 MOL     -0.016879
     19 N2         -1.4750    4.4420    0.2520 n         1 MOL     -0.122623
     20 C7         -1.9830    5.7160   -0.3190 c3        1 MOL     -0.011424
     21 C8         -3.1980    5.6260   -1.2290 c         1 MOL      0.319889
     22 O5         -3.9580    6.5960   -1.3950 o         1 MOL     -0.498138
     23 C9         -0.8710    6.3910   -1.0490 c3        1 MOL     -0.158610
     24 C10         0.4620    6.6430   -0.3600 c3        1 MOL      0.291207
     25 C11         0.3850    7.4210    1.0130 c3        1 MOL     -0.001285
     26 C12         1.6890    8.2170    1.1110 c3        1 MOL     -0.123017
     27 N3          2.9490    7.3450    1.2470 n4        1 MOL     -0.319409
     28 H8         -0.6320    4.0390   -0.1270 hn        1 MOL      0.271178
     29 H9         -2.2440    6.3620    0.5190 h1        1 MOL      0.081310
     30 H10        -1.2340    7.3740   -1.3530 hc        1 MOL      0.046989
     31 H11        -0.6210    5.8050   -1.9370 hc        1 MOL      0.046989
     32 H12         1.0570    7.2080   -1.0820 hc        1 MOL     -0.069044
     33 H13         0.9530    5.6850   -0.2080 hc        1 MOL     -0.069044
     34 H14         0.3140    6.6760    1.8100 hc        1 MOL      0.029993
     35 H15        -0.4560    8.1070    1.0800 hc        1 MOL      0.029993
     36 H16         1.6450    8.9430    1.9230 hx        1 MOL      0.122277
     37 H17         1.6980    8.8260    0.2050 hx        1 MOL      0.122277
     38 H18         3.7900    7.8930    1.1570 hn        1 MOL      0.320617
     39 H19         3.0820    6.9090    2.1470 hn        1 MOL      0.320617
     40 H20         2.9580    6.6350    0.5300 hn        1 MOL      0.320617
     41 N4         -3.3720    4.4190   -1.8010 n         1 MOL     -0.175137
     42 C13        -4.5220    4.0170   -2.6020 c3        1 MOL      0.014548
     43 C14        -5.7610    3.4340   -1.8550 c         1 MOL      0.451179
     44 O6         -6.8940    3.4230   -2.3390 o         1 MOL     -0.532011
     45 C15        -3.9690    2.9290   -3.5380 c3        1 MOL     -0.310899
     46 C16        -3.2460    1.8240   -2.8730 c         1 MOL      0.886874
     47 O7         -3.6660    0.6270   -2.9180 o         1 MOL     -0.831809
     48 O8         -2.2540    2.0640   -2.2080 o         1 MOL     -0.831809
     49 H21        -2.5020    3.9050   -1.8180 hn        1 MOL      0.239955
     50 H22        -4.8770    4.9010   -3.1200 h1        1 MOL      0.082946
     51 H23        -3.3130    3.4680   -4.2220 hc        1 MOL      0.081008
     52 H24        -4.7600    2.4310   -4.0990 hc        1 MOL      0.081008
     53 N5         -5.5060    3.0410   -0.5920 n         1 MOL     -0.053431
     54 C17        -6.4500    2.6030    0.4490 c3        1 MOL     -0.314609
     55 C18        -6.8900    1.1050    0.5280 c         1 MOL      0.661365
     56 O9         -7.9180    0.8750    1.1390 o         1 MOL     -0.591290
     57 H25        -4.5630    3.2000   -0.2650 hn        1 MOL      0.120027
     58 H26        -7.3620    3.2100    0.3720 h1        1 MOL      0.132890
     59 H27        -5.9860    2.7940    1.4160 h1        1 MOL      0.132890
     60 N6         -6.1630    0.1880   -0.0260 n         1 MOL     -0.293820
     61 C19        -6.6600   -1.1360   -0.3990 c3        1 MOL      0.113239
     62 C20        -6.4430   -2.1860    0.7020 c         1 MOL      0.431676
     63 O10        -7.0540   -3.2780    0.6160 o         1 MOL     -0.556410
     64 C21        -6.0190   -1.5750   -1.7340 c3        1 MOL     -0.478992
     65 C22        -4.8020   -2.3660   -1.6650 c         1 MOL      0.859519
     66 N7         -4.6470   -3.5180   -2.2650 n         1 MOL     -0.811886
     67 O11        -3.9080   -2.0800   -0.9120 o         1 MOL     -0.590119
     68 H28        -5.2180    0.4600   -0.2330 hn        1 MOL      0.091217
     69 H29        -7.7420   -1.0470   -0.4520 h1        1 MOL      0.091447
     70 H30        -5.8840   -0.6090   -2.2230 hc        1 MOL      0.149392
     71 H31        -6.7760   -2.1150   -2.2910 hc        1 MOL      0.149392
     72 H32        -5.4090   -4.0890   -2.6120 hn        1 MOL      0.338721
     73 H33        -3.7900   -4.0220   -2.0900 hn        1 MOL      0.338721
     74 N8         -5.5410   -1.9150    1.6730 n         1 MOL     -0.270909
     75 C23        -5.4340   -2.8770    2.8080 c3        1 MOL     -0.098765
     76 C24        -4.0000   -3.4650    3.0700 c         1 MOL      0.465362
     77 O12        -3.6380   -3.8040    4.2300 o         1 MOL     -0.554524
     78 H34        -4.8820   -1.1570    1.6490 hn        1 MOL      0.314098
     79 H35        -6.1580   -3.6860    2.7450 h1        1 MOL      0.096372
     80 H36        -5.6930   -2.3560    3.7410 h1        1 MOL      0.096372
     81 N9         -3.1720   -3.3920    2.0190 n         1 MOL     -0.307995
     82 C25        -1.7690   -3.8370    2.1820 c3        1 MOL      0.092618
     83 C26        -0.7780   -2.9200    1.4210 c         1 MOL      0.612845
     84 O13        -1.1000   -2.0280    0.6200 o         1 MOL     -0.618885
     85 C27        -1.6670   -5.4050    1.7750 c3        1 MOL     -0.216570
     86 C28        -2.3790   -5.7990    0.4720 ca        1 MOL      0.144464
     87 C29        -1.8950   -5.4050   -0.7150 ca        1 MOL     -0.198702
     88 C30        -3.6020   -6.4850    0.4640 ca        1 MOL     -0.198702
     89 C31        -2.4170   -5.9000   -1.9010 ca        1 MOL     -0.223057
     90 C32        -4.2740   -6.8730   -0.6970 ca        1 MOL     -0.223057
     91 C33        -3.6450   -6.5960   -1.9180 ca        1 MOL      0.349384
     92 O14        -4.1400   -6.9830   -3.1520 oh        1 MOL     -0.570484
     93 H37        -3.4450   -3.0710    1.1020 hn        1 MOL      0.234171
     94 H38        -1.4590   -3.6910    3.2130 h1        1 MOL      0.077307
     95 H39        -2.1590   -5.9330    2.6010 hc        1 MOL      0.076639
     96 H40        -0.6010   -5.6370    1.7360 hc        1 MOL      0.076639
     97 H41        -1.0660   -4.7160   -0.7970 ha        1 MOL      0.154893
     98 H42        -4.1500   -6.7030    1.3740 ha        1 MOL      0.154893
     99 H43        -1.9830   -5.5910   -2.8350 ha        1 MOL      0.131637
    100 H44        -5.1170   -7.5320   -0.6860 ha        1 MOL      0.131637
    101 H45        -5.0740   -7.1670   -3.1430 ho        1 MOL      0.411725
    102 N10         0.4860   -3.0210    1.9200 n         1 MOL     -0.446092
    103 C34         1.7280   -2.3270    1.5960 c3        1 MOL     -0.093312
    104 C35         2.8310   -3.3780    1.2690 c         1 MOL      0.505485
    105 O15         2.8840   -4.5640    1.6210 o         1 MOL     -0.529274
    106 C36         2.1340   -1.4110    2.6830 c3        1 MOL      0.182905
    107 C37         2.4240   -2.2080    3.9940 c3        1 MOL     -0.140019
    108 C38         1.0980   -0.2520    3.0210 c3        1 MOL     -0.261850
    109 C39         3.4630   -1.5410    4.8590 c3        1 MOL     -0.125867
    110 H46         0.6940   -3.6820    2.6630 hn        1 MOL      0.212685
    111 H47         1.5430   -1.7490    0.6920 h1        1 MOL      0.172561
    112 H48         3.0730   -0.9800    2.3450 hc        1 MOL     -0.026877
    113 H49         2.8870   -3.1540    3.6990 hc        1 MOL      0.077702
    114 H50         1.5410   -2.2510    4.6390 hc        1 MOL      0.077702
    115 H51         0.8210    0.4280    2.2160 hc        1 MOL      0.086556
    116 H52         0.2600   -0.8030    3.4460 hc        1 MOL      0.086556
    117 H53         1.5030    0.2740    3.8840 hc        1 MOL      0.086556
    118 H54         3.5420   -2.0660    5.8020 hc        1 MOL      0.031437
    119 H55         4.4280   -1.5600    4.3500 hc        1 MOL      0.031437
    120 H56         3.1980   -0.5080    5.0970 hc        1 MOL      0.031437
    121 N11         3.8240   -2.8580    0.5440 n         1 MOL     -0.212773
    122 C40         5.0000   -3.5100   -0.1650 c3        1 MOL      0.048500
    123 C41         6.3490   -2.7390    0.2230 c         1 MOL      0.302415
    124 O16         6.3750   -1.7110    0.8690 o         1 MOL     -0.346299
    125 C42         4.7440   -3.3630   -1.6540 c3        1 MOL     -0.151077
    126 O17         4.7520   -2.0340   -2.0890 oh        1 MOL     -0.383008
    127 H57         3.6840   -1.8730    0.3360 hn        1 MOL      0.070897
    128 H58         5.0850   -4.5690    0.0450 h1        1 MOL      0.099468
    129 H59         3.7910   -3.7950   -1.9860 h1        1 MOL      0.093304
    130 H60         5.4970   -3.9180   -2.2210 h1        1 MOL      0.093304
    131 H61         4.4060   -2.1600   -2.9720 ho        1 MOL      0.375408
    132 N12         7.4750   -3.1510   -0.3850 n         1 MOL     -0.237298
    133 C43         8.7490   -2.5390   -0.2870 c3        1 MOL      0.062285
    134 C44         8.7290   -1.1550   -0.9640 c         1 MOL      0.509649
    135 O18         9.4250   -0.2470   -0.5260 o         1 MOL     -0.524075
    136 C45         9.7360   -3.5090   -0.9020 c3        1 MOL     -0.230223
    137 H62         7.4860   -4.0700   -0.7950 hn        1 MOL      0.224577
    138 H63         8.9000   -2.4030    0.7800 h1        1 MOL      0.076560
    139 H64         9.7320   -3.4790   -1.9940 hc        1 MOL      0.075499
    140 H65        10.7600   -3.3080   -0.5690 hc        1 MOL      0.075499
    141 H66         9.3890   -4.4730   -0.5190 hc        1 MOL      0.075499
    142 N13         7.9310   -0.9760   -2.0730 n         1 MOL     -0.347942
    143 C46         7.8510    0.3370   -2.7830 c3        1 MOL      0.071907
    144 C47         6.8950    1.2900   -2.0750 c         1 MOL      0.362201
    145 O19         7.2230    2.4780   -1.9190 o         1 MOL     -0.508050
    146 C48         7.1750    0.0530   -4.1870 c3        1 MOL     -0.301319
    147 H67         7.2950   -1.7280   -2.3230 hn        1 MOL      0.187281
    148 H68         8.8500    0.7760   -2.7520 h1        1 MOL      0.121206
    149 H69         6.1960   -0.4020   -4.0400 hc        1 MOL      0.084978
    150 H70         6.8640    0.9280   -4.7550 hc        1 MOL      0.084978
    151 H71         7.7160   -0.6860   -4.7860 hc        1 MOL      0.084978
    152 N14         5.8240    0.7520   -1.3870 n         1 MOL     -0.084886
    153 C49         4.9960    1.6510   -0.5210 c3        1 MOL     -0.204440
    154 C50         5.7310    1.9680    0.7640 c         1 MOL      0.507680
    155 O20         5.4870    3.0360    1.2830 o         1 MOL     -0.608075
    156 C51         3.6080    1.0820   -0.3340 c3        1 MOL      0.248721
    157 C52         2.8570    0.9600   -1.5890 c3        1 MOL      0.030546
    158 C53         1.4350    0.2760   -1.3760 c         1 MOL      0.623515
    159 O21         1.2590   -0.9430   -1.5990 o         1 MOL     -0.701707
    160 O22         0.5580    0.9500   -0.8020 o         1 MOL     -0.701707
    161 H72         5.5760   -0.2160   -1.5080 hn        1 MOL      0.086962
    162 H73         4.8040    2.5540   -1.1110 h1        1 MOL      0.116446
    163 H74         3.0170    1.6810    0.3630 hc        1 MOL     -0.014382
    164 H75         3.7810    0.1190    0.1640 hc        1 MOL     -0.014382
    165 H76         3.4030    0.3360   -2.2880 hc        1 MOL     -0.058965
    166 H77         2.8360    1.9600   -2.0240 hc        1 MOL     -0.058965
    167 N15         6.6740    1.2130    1.1860 n         1 MOL     -0.084344
    168 C54         7.6370    1.5140    2.3520 c3        1 MOL     -0.264215
    169 H78         7.0960    1.4460    3.2950 h1        1 MOL      0.112477
    170 H79         8.4510    0.7900    2.3480 h1        1 MOL      0.112477
    171 H80         8.0430    2.5190    2.2380 h1        1 MOL      0.112477
    172 H81         6.6060    0.2130    1.0290 hn        1 MOL      0.106727
    173 Ca1        -1.6420   -0.1970   -1.4240 Ca        1 MOL      1.745604
    174 O23        -1.5580   -2.5850   -2.8460 oh        1 MOL     -0.810138
    175 H82        -1.9550   -2.6940   -3.7050 ho        1 MOL      0.397016
    176 H83        -0.6300   -2.7950   -2.9890 ho        1 MOL      0.397016
    177 O24        -0.3320    0.2820   -3.7790 oh        1 MOL     -0.810138
    178 H84         0.0550   -0.4520   -4.2570 ho        1 MOL      0.397016
    179 H85        -0.6130    0.8940   -4.4570 ho        1 MOL      0.397016
@<TRIPOS>BOND
     1    1    2 1   
     2    1    4 1   
     3    1    5 1   
     4    1    6 1   
     5    2    3 2   
     6    2    7 1   
     7    7    8 1   
     8    7   15 1   
     9    8    9 1   
    10    8   11 1   
    11    8   16 1   
    12    9   10 2   
    13    9   19 1   
    14   11   12 1   
    15   11   17 1   
    16   11   18 1   
    17   12   13 1   
    18   12   14 1   
    19   19   20 1   
    20   19   28 1   
    21   20   21 1   
    22   20   23 1   
    23   20   29 1   
    24   21   22 2   
    25   21   41 1   
    26   23   24 1   
    27   23   30 1   
    28   23   31 1   
    29   24   25 1   
    30   24   32 1   
    31   24   33 1   
    32   25   26 1   
    33   25   34 1   
    34   25   35 1   
    35   26   27 1   
    36   26   36 1   
    37   26   37 1   
    38   27   38 1   
    39   27   39 1   
    40   27   40 1   
    41   41   42 1   
    42   41   49 1   
    43   42   43 1   
    44   42   45 1   
    45   42   50 1   
    46   43   44 2   
    47   43   53 1   
    48   45   46 1   
    49   45   51 1   
    50   45   52 1   
    51   46   47 1   
    52   46   48 1   
    53   53   54 1   
    54   53   57 1   
    55   54   55 1   
    56   54   58 1   
    57   54   59 1   
    58   55   56 2   
    59   55   60 1   
    60   60   61 1   
    61   60   68 1   
    62   61   62 1   
    63   61   64 1   
    64   61   69 1   
    65   62   63 2   
    66   62   74 1   
    67   64   65 1   
    68   64   70 1   
    69   64   71 1   
    70   65   66 1   
    71   65   67 2   
    72   66   72 1   
    73   66   73 1   
    74   74   75 1   
    75   74   78 1   
    76   75   76 1   
    77   75   79 1   
    78   75   80 1   
    79   76   77 2   
    80   76   81 1   
    81   81   82 1   
    82   81   93 1   
    83   82   83 1   
    84   82   85 1   
    85   82   94 1   
    86   83   84 2   
    87   83  102 1   
    88   85   86 1   
    89   85   95 1   
    90   85   96 1   
    91   86   87 ar  
    92   86   88 ar  
    93   87   89 ar  
    94   87   97 1   
    95   88   90 ar  
    96   88   98 1   
    97   89   91 ar  
    98   89   99 1   
    99   90   91 ar  
   100   90  100 1   
   101   91   92 1   
   102   92  101 1   
   103  102  103 1   
   104  102  110 1   
   105  103  104 1   
   106  103  106 1   
   107  103  111 1   
   108  104  105 2   
   109  104  121 1   
   110  106  107 1   
   111  106  108 1   
   112  106  112 1   
   113  107  109 1   
   114  107  113 1   
   115  107  114 1   
   116  108  115 1   
   117  108  116 1   
   118  108  117 1   
   119  109  118 1   
   120  109  119 1   
   121  109  120 1   
   122  121  122 1   
   123  121  127 1   
   124  122  123 1   
   125  122  125 1   
   126  122  128 1   
   127  123  124 2   
   128  123  132 1   
   129  125  126 1   
   130  125  129 1   
   131  125  130 1   
   132  126  131 1   
   133  132  133 1   
   134  132  137 1   
   135  133  134 1   
   136  133  136 1   
   137  133  138 1   
   138  134  135 2   
   139  134  142 1   
   140  136  139 1   
   141  136  140 1   
   142  136  141 1   
   143  142  143 1   
   144  142  147 1   
   145  143  144 1   
   146  143  146 1   
   147  143  148 1   
   148  144  145 2   
   149  144  152 1   
   150  146  149 1   
   151  146  150 1   
   152  146  151 1   
   153  152  153 1   
   154  152  161 1   
   155  153  154 1   
   156  153  156 1   
   157  153  162 1   
   158  154  155 2   
   159  154  167 1   
   160  156  157 1   
   161  156  163 1   
   162  156  164 1   
   163  157  158 1   
   164  157  165 1   
   165  157  166 1   
   166  158  159 1   
   167  158  160 1   
   168  167  168 1   
   169  167  172 1   
   170  168  169 1   
   171  168  170 1   
   172  168  171 1   
   173  174  175 1   
   174  174  176 1   
   175  177  178 1   
   176  177  179 1   
@<TRIPOS>SUBSTRUCTURE
     1 MOL         1 TEMP              0 ****  ****    0 ROOT
