@<TRIPOS>MOLECULE
MOL
  189   185     1     0     0
SMALL
resp


@<TRIPOS>ATOM
      1 C1          0.7540    1.1450    6.0830 c3        1 MOL     -0.365413
      2 C2          0.1660    1.3360    4.6280 c         1 MOL      0.728262
      3 O1          0.8090    1.8980    3.7490 o         1 MOL     -0.607124
      4 H1          1.3950    1.9910    6.3290 hc        1 MOL      0.098942
      5 H2         -0.0640    1.0890    6.8010 hc        1 MOL      0.098942
      6 H3          1.3360    0.2240    6.1220 hc        1 MOL      0.098942
      7 N1         -1.0800    0.9260    4.2860 n         1 MOL     -0.622565
      8 C3         -1.7080    1.0830    3.0410 c3        1 MOL      0.197262
      9 C4         -2.0060    2.5620    2.6700 c         1 MOL      0.556699
     10 O2         -2.8510    3.1720    3.3540 o         1 MOL     -0.571167
     11 C5         -3.0250    0.2520    3.0250 c3        1 MOL     -0.288600
     12 C6         -3.6160   -0.0540    1.6300 c         1 MOL      0.902250
     13 O3         -4.7660   -0.4840    1.5260 o         1 MOL     -0.754963
     14 O4         -2.9200    0.1760    0.6480 o         1 MOL     -0.754963
     15 H4         -1.6560    0.5420    5.0170 hn        1 MOL      0.315166
     16 H5         -1.1990    0.6100    2.1900 h1        1 MOL      0.058274
     17 H6         -3.8260    0.6900    3.6250 hc        1 MOL      0.055207
     18 H7         -2.7200   -0.7440    3.3660 hc        1 MOL      0.055207
     19 N2         -1.3560    3.0810    1.6460 n         1 MOL     -0.409955
     20 C7         -1.4160    4.4730    1.2100 c3        1 MOL     -0.034118
     21 C8         -2.6480    4.7760    0.4260 c         1 MOL      0.412270
     22 O5         -3.2570    5.8570    0.7460 o         1 MOL     -0.587107
     23 C9         -0.2630    4.9120    0.3070 c3        1 MOL      0.054521
     24 C10        -0.0860    6.3840   -0.0250 c3        1 MOL     -0.162367
     25 C11         0.3850    7.4510    1.0080 c3        1 MOL      0.133985
     26 C12        -0.6980    7.8860    1.9400 c3        1 MOL     -0.039632
     27 N3         -0.1590    8.1450    3.3130 n4        1 MOL     -0.226248
     28 H8         -0.8220    2.4550    1.0490 hn        1 MOL      0.313242
     29 H9         -1.4510    5.0140    2.1590 h1        1 MOL      0.101422
     30 H10        -0.3630    4.3480   -0.6160 hc        1 MOL      0.024521
     31 H11         0.6540    4.5180    0.7420 hc        1 MOL      0.024521
     32 H12        -0.9420    6.7600   -0.5920 hc        1 MOL      0.043011
     33 H13         0.7840    6.4410   -0.6730 hc        1 MOL      0.043011
     34 H14         0.9210    8.2870    0.5400 hc        1 MOL     -0.013009
     35 H15         1.2000    7.0420    1.6140 hc        1 MOL     -0.013009
     36 H16        -1.4320    7.0810    2.0300 hx        1 MOL      0.097179
     37 H17        -1.1850    8.8020    1.6030 hx        1 MOL      0.097179
     38 H18         0.5730    8.8330    3.2090 hn        1 MOL      0.287346
     39 H19        -0.8180    8.5920    3.9340 hn        1 MOL      0.287346
     40 H20         0.2610    7.3540    3.7710 hn        1 MOL      0.287346
     41 N4         -3.0690    3.8450   -0.4420 n         1 MOL     -0.080643
     42 C13        -4.0940    4.1030   -1.4590 c3        1 MOL     -0.017707
     43 C14        -5.4100    3.3170   -1.1550 c         1 MOL      0.400119
     44 O6         -6.4890    3.4940   -1.8450 o         1 MOL     -0.527517
     45 C15        -3.5440    3.8920   -2.9190 c3        1 MOL     -0.188782
     46 C16        -2.6630    2.7370   -3.0700 c         1 MOL      0.881723
     47 O7         -2.8000    1.7740   -2.2990 o         1 MOL     -0.753733
     48 O8         -1.9160    2.7110   -4.0480 o         1 MOL     -0.753733
     49 H21        -2.4410    3.0570   -0.5510 hn        1 MOL      0.095255
     50 H22        -4.4130    5.1360   -1.3180 h1        1 MOL      0.089209
     51 H23        -2.9670    4.7840   -3.1800 hc        1 MOL      0.045615
     52 H24        -4.4310    3.8290   -3.5430 hc        1 MOL      0.045615
     53 N5         -5.4390    2.5000   -0.1030 n         1 MOL     -0.234765
     54 C17        -6.6690    1.9280    0.5170 c3        1 MOL     -0.131369
     55 C18        -7.3710    0.8280   -0.3600 c         1 MOL      0.454448
     56 O9         -8.5690    0.6150   -0.3420 o         1 MOL     -0.528380
     57 H25        -4.5760    2.2060    0.3280 hn        1 MOL      0.188115
     58 H26        -7.3600    2.7510    0.6990 h1        1 MOL      0.100164
     59 H27        -6.4150    1.6240    1.5340 h1        1 MOL      0.100164
     60 N6         -6.4810    0.2450   -1.1830 n         1 MOL     -0.167122
     61 C19        -6.9260   -0.9590   -1.8810 c3        1 MOL     -0.019984
     62 C20        -7.0290   -2.2330   -0.9530 c         1 MOL      0.385124
     63 O10        -7.6980   -3.2000   -1.3110 o         1 MOL     -0.525559
     64 C21        -6.0470   -1.2820   -3.0320 c3        1 MOL     -0.327606
     65 C22        -4.5680   -1.2720   -2.6630 c         1 MOL      0.768273
     66 O11        -3.7510   -0.8030   -3.5190 o         1 MOL     -0.715115
     67 O12        -4.0330   -1.8150   -1.6610 o         1 MOL     -0.715115
     68 H28        -5.4990    0.4560   -1.1980 hn        1 MOL      0.175508
     69 H29        -7.9180   -0.7460   -2.2950 h1        1 MOL      0.119052
     70 H30        -6.2530   -0.4940   -3.7520 hc        1 MOL      0.108619
     71 H31        -6.3510   -2.2720   -3.3830 hc        1 MOL      0.108619
     72 N7         -6.5010   -2.1710    0.2770 n         1 MOL     -0.156341
     73 C23        -6.5530   -3.3450    1.1820 c3        1 MOL     -0.184287
     74 C24        -5.3780   -4.2850    0.9980 c         1 MOL      0.536373
     75 O13        -5.2340   -5.3780    1.6040 o         1 MOL     -0.591471
     76 H32        -5.8590   -1.4640    0.6040 hn        1 MOL      0.227607
     77 H33        -7.4470   -3.9480    1.0030 h1        1 MOL      0.100839
     78 H34        -6.5640   -3.0480    2.2270 h1        1 MOL      0.100839
     79 N8         -4.2740   -3.8460    0.3630 n         1 MOL      0.008860
     80 C25        -2.9900   -4.5840    0.2630 c3        1 MOL     -0.672658
     81 C26        -1.7140   -3.7810    0.3880 c         1 MOL      0.969023
     82 O14        -1.6030   -2.7760   -0.2690 o         1 MOL     -0.678064
     83 C27        -2.9300   -5.4380   -1.0150 c3        1 MOL      0.648586
     84 C28        -3.7940   -6.7170   -0.9450 c3        1 MOL     -0.338068
     85 O15        -3.3220   -4.7140   -2.1030 oh        1 MOL     -0.697002
     86 H35        -4.2190   -2.9370   -0.0940 hn        1 MOL      0.068773
     87 H36        -2.9630   -5.3130    1.0750 h1        1 MOL      0.173214
     88 H37        -1.8960   -5.7050   -1.2460 h1        1 MOL     -0.044717
     89 H38        -3.4870   -3.7830   -1.9170 ho        1 MOL      0.447259
     90 H39        -4.7520   -6.6430   -1.4490 hc        1 MOL      0.077529
     91 H40        -3.1890   -7.5060   -1.3960 hc        1 MOL      0.077529
     92 H41        -3.9330   -7.0570    0.0750 hc        1 MOL      0.077529
     93 N9         -0.6710   -4.2370    1.1340 n         1 MOL     -0.733289
     94 C29         0.5340   -3.5280    1.4610 c3        1 MOL      0.049285
     95 C30         1.5970   -3.9710    0.5030 c         1 MOL      0.585343
     96 O16         1.8200   -5.1620    0.2370 o         1 MOL     -0.570195
     97 C31         0.9730   -3.7540    2.9570 c3        1 MOL      0.110895
     98 C32        -0.0380   -3.2190    3.9930 c3        1 MOL      0.438964
     99 C33         2.3680   -3.0930    3.3300 c3        1 MOL     -0.732974
    100 C34         0.1980   -3.7360    5.3820 c3        1 MOL     -0.278703
    101 H42        -0.7850   -5.1180    1.6120 hn        1 MOL      0.317303
    102 H43         0.3730   -2.4840    1.1730 h1        1 MOL      0.088968
    103 H44         1.0670   -4.8350    3.0480 hc        1 MOL      0.027040
    104 H45        -1.0320   -3.5410    3.6710 hc        1 MOL     -0.097260
    105 H46        -0.2120   -2.1440    3.9000 hc        1 MOL     -0.097260
    106 H47         2.3030   -2.0170    3.4520 hc        1 MOL      0.168131
    107 H48         2.5980   -3.4620    4.3330 hc        1 MOL      0.168131
    108 H49         3.0790   -3.5700    2.6550 hc        1 MOL      0.168131
    109 H50         1.0620   -3.2640    5.8570 hc        1 MOL      0.047036
    110 H51        -0.6710   -3.4130    5.9550 hc        1 MOL      0.047036
    111 H52         0.2170   -4.8260    5.4630 hc        1 MOL      0.047036
    112 N10         2.3600   -3.0340   -0.1010 n         1 MOL     -0.290145
    113 C35         3.5060   -3.2780   -1.0880 c3        1 MOL     -0.090790
    114 C36         4.8570   -2.8620   -0.4310 c         1 MOL      0.462877
    115 O17         4.8810   -2.4420    0.6990 o         1 MOL     -0.383518
    116 C37         3.2910   -2.4520   -2.3090 c3        1 MOL      0.402792
    117 C38         2.2230   -2.9870   -3.2140 c3        1 MOL     -0.441797
    118 O18         3.1940   -1.0740   -1.9790 oh        1 MOL     -0.657226
    119 H53         2.1360   -2.0510   -0.0850 hn        1 MOL      0.302958
    120 H54         3.5560   -4.3200   -1.4040 h1        1 MOL      0.087411
    121 H55         4.1660   -2.5310   -2.9650 h1        1 MOL     -0.005772
    122 H56         2.4400   -0.9560   -1.4060 ho        1 MOL      0.406194
    123 H57         2.6250   -3.8490   -3.7470 hc        1 MOL      0.116967
    124 H58         1.2950   -3.2620   -2.7160 hc        1 MOL      0.116967
    125 H59         1.9600   -2.1400   -3.8450 hc        1 MOL      0.116967
    126 N11         6.0040   -3.0150   -1.1370 n         1 MOL     -0.462371
    127 C39         7.4090   -2.6750   -0.6190 c3        1 MOL     -0.016843
    128 C40         7.5790   -1.1400   -0.3130 c         1 MOL      0.275784
    129 O19         7.9990   -0.7530    0.7480 o         1 MOL     -0.469598
    130 C41         8.5300   -3.0770   -1.5610 c3        1 MOL      0.311258
    131 C42         8.6430   -4.5430   -1.4820 c3        1 MOL     -0.372816
    132 O20         8.2280   -2.7290   -2.8850 oh        1 MOL     -0.544257
    133 H60         5.9960   -3.2660   -2.1110 hn        1 MOL      0.276803
    134 H61         7.5870   -3.1370    0.3520 h1        1 MOL      0.123434
    135 H62         9.3800   -2.5020   -1.1960 h1        1 MOL      0.026596
    136 H63         8.6680   -1.8770   -2.9540 ho        1 MOL      0.343200
    137 H64         9.3560   -4.8640   -2.2500 hc        1 MOL      0.108552
    138 H65         8.9420   -4.8660   -0.4890 hc        1 MOL      0.108552
    139 H66         7.6720   -5.0020   -1.6570 hc        1 MOL      0.108552
    140 N12         7.0180   -0.3390   -1.1760 n         1 MOL     -0.061309
    141 C43         6.9170    1.0930   -1.0790 c3        1 MOL     -0.069743
    142 C44         6.1780    1.5070    0.1930 c         1 MOL      0.371102
    143 O21         6.5580    2.4350    0.9050 o         1 MOL     -0.494046
    144 C45         6.3810    1.7700   -2.3900 c3        1 MOL     -0.214277
    145 C46         6.4700    3.3020   -2.4290 c3        1 MOL      0.019290
    146 C47         5.8480    3.7710   -3.7680 c3        1 MOL      0.053708
    147 C48         5.6620    5.2680   -4.0430 c3        1 MOL      0.144110
    148 N13         4.8460    5.5960   -5.2780 n4        1 MOL     -0.551726
    149 H67         6.7440   -0.6930   -2.0780 hn        1 MOL      0.148780
    150 H68         7.9320    1.4790   -0.9770 h1        1 MOL      0.084796
    151 H69         5.3290    1.4830   -2.4810 hc        1 MOL      0.078997
    152 H70         7.0060    1.3400   -3.1770 hc        1 MOL      0.078997
    153 H71         7.5190    3.6040   -2.4910 hc        1 MOL      0.037447
    154 H72         6.0080    3.8190   -1.5890 hc        1 MOL      0.037447
    155 H73         4.8460    3.3280   -3.7980 hc        1 MOL      0.001217
    156 H74         6.4660    3.3700   -4.5670 hc        1 MOL      0.001217
    157 H75         6.6710    5.6840   -4.0770 hx        1 MOL      0.051011
    158 H76         5.2460    5.7120   -3.1360 hx        1 MOL      0.051011
    159 H77         4.6730    6.5870   -5.3480 hn        1 MOL      0.375083
    160 H78         5.3830    5.2900   -6.0700 hn        1 MOL      0.375083
    161 H79         3.9250    5.1880   -5.2370 hn        1 MOL      0.375083
    162 N14         5.0980    0.7180    0.4850 n         1 MOL     -0.059124
    163 C49         4.2340    1.0620    1.6610 c3        1 MOL     -0.163067
    164 C50         4.7950    0.7580    3.0760 c         1 MOL      0.423967
    165 O22         4.7010    1.6230    3.9770 o         1 MOL     -0.536497
    166 C51         2.8910    0.3680    1.4050 c3        1 MOL      0.168569
    167 C52         2.0910    1.0510    0.2820 c3        1 MOL     -0.217257
    168 C53         0.7350    0.4620   -0.1620 c         1 MOL      0.658611
    169 O23         0.6420   -0.7530   -0.4460 o         1 MOL     -0.721073
    170 O24        -0.2490    1.2490   -0.3250 o         1 MOL     -0.721073
    171 H80         4.8710   -0.0670   -0.1060 hn        1 MOL      0.158029
    172 H81         4.0220    2.1280    1.6520 h1        1 MOL      0.107583
    173 H82         2.2970    0.3160    2.3150 hc        1 MOL     -0.015061
    174 H83         3.0910   -0.6150    0.9990 hc        1 MOL     -0.015061
    175 H84         2.6660    1.0800   -0.6410 hc        1 MOL      0.021541
    176 H85         1.8280    2.0610    0.5970 hc        1 MOL      0.021541
    177 N15         5.5810   -0.2940    3.1470 n         1 MOL     -0.015261
    178 C54         6.4540   -0.6350    4.2560 c3        1 MOL     -0.345973
    179 H86         6.9810    0.2580    4.5900 h1        1 MOL      0.123096
    180 H87         5.8590   -1.0340    5.0770 h1        1 MOL      0.123096
    181 H88         7.1770   -1.3830    3.9330 h1        1 MOL      0.123096
    182 H89         5.5510   -0.9900    2.4200 hn        1 MOL      0.131751
    183 Ca1        -1.8230   -0.4670   -1.5840 Ca        1 MOL      1.785365
    184 O25        -1.1710   -2.5400   -3.2680 oh        1 MOL     -0.832209
    185 H90        -0.8230   -2.5190   -4.1610 ho        1 MOL      0.392083
    186 H91        -1.8790   -3.1780   -3.3070 ho        1 MOL      0.392083
    187 O26        -0.4360    0.3480   -3.7310 oh        1 MOL     -0.832209
    188 H92         0.1790    0.1530   -4.4390 ho        1 MOL      0.392083
    189 H93        -0.7730    1.2210   -3.9220 ho        1 MOL      0.392083
@<TRIPOS>BOND
     1    1    2 1   
     2    1    4 1   
     3    1    5 1   
     4    1    6 1   
     5    2    3 2   
     6    2    7 1   
     7    7    8 1   
     8    7   15 1   
     9    8    9 1   
    10    8   11 1   
    11    8   16 1   
    12    9   10 2   
    13    9   19 1   
    14   11   12 1   
    15   11   17 1   
    16   11   18 1   
    17   12   13 1   
    18   12   14 1   
    19   19   20 1   
    20   19   28 1   
    21   20   21 1   
    22   20   23 1   
    23   20   29 1   
    24   21   22 2   
    25   21   41 1   
    26   23   24 1   
    27   23   30 1   
    28   23   31 1   
    29   24   25 1   
    30   24   32 1   
    31   24   33 1   
    32   25   26 1   
    33   25   34 1   
    34   25   35 1   
    35   26   27 1   
    36   26   36 1   
    37   26   37 1   
    38   27   38 1   
    39   27   39 1   
    40   27   40 1   
    41   41   42 1   
    42   41   49 1   
    43   42   43 1   
    44   42   45 1   
    45   42   50 1   
    46   43   44 2   
    47   43   53 1   
    48   45   46 1   
    49   45   51 1   
    50   45   52 1   
    51   46   47 1   
    52   46   48 1   
    53   53   54 1   
    54   53   57 1   
    55   54   55 1   
    56   54   58 1   
    57   54   59 1   
    58   55   56 2   
    59   55   60 1   
    60   60   61 1   
    61   60   68 1   
    62   61   62 1   
    63   61   64 1   
    64   61   69 1   
    65   62   63 2   
    66   62   72 1   
    67   64   65 1   
    68   64   70 1   
    69   64   71 1   
    70   65   66 1   
    71   65   67 1   
    72   72   73 1   
    73   72   76 1   
    74   73   74 1   
    75   73   77 1   
    76   73   78 1   
    77   74   75 2   
    78   74   79 1   
    79   79   80 1   
    80   79   86 1   
    81   80   81 1   
    82   80   83 1   
    83   80   87 1   
    84   81   82 2   
    85   81   93 1   
    86   83   84 1   
    87   83   85 1   
    88   83   88 1   
    89   84   90 1   
    90   84   91 1   
    91   84   92 1   
    92   85   89 1   
    93   93   94 1   
    94   93  101 1   
    95   94   95 1   
    96   94   97 1   
    97   94  102 1   
    98   95   96 2   
    99   95  112 1   
   100   97   98 1   
   101   97   99 1   
   102   97  103 1   
   103   98  100 1   
   104   98  104 1   
   105   98  105 1   
   106   99  106 1   
   107   99  107 1   
   108   99  108 1   
   109  100  109 1   
   110  100  110 1   
   111  100  111 1   
   112  112  113 1   
   113  112  119 1   
   114  113  114 1   
   115  113  116 1   
   116  113  120 1   
   117  114  115 2   
   118  114  126 1   
   119  116  117 1   
   120  116  118 1   
   121  116  121 1   
   122  117  123 1   
   123  117  124 1   
   124  117  125 1   
   125  118  122 1   
   126  126  127 1   
   127  126  133 1   
   128  127  128 1   
   129  127  130 1   
   130  127  134 1   
   131  128  129 2   
   132  128  140 1   
   133  130  131 1   
   134  130  132 1   
   135  130  135 1   
   136  131  137 1   
   137  131  138 1   
   138  131  139 1   
   139  132  136 1   
   140  140  141 1   
   141  140  149 1   
   142  141  142 1   
   143  141  144 1   
   144  141  150 1   
   145  142  143 2   
   146  142  162 1   
   147  144  145 1   
   148  144  151 1   
   149  144  152 1   
   150  145  146 1   
   151  145  153 1   
   152  145  154 1   
   153  146  147 1   
   154  146  155 1   
   155  146  156 1   
   156  147  148 1   
   157  147  157 1   
   158  147  158 1   
   159  148  159 1   
   160  148  160 1   
   161  148  161 1   
   162  162  163 1   
   163  162  171 1   
   164  163  164 1   
   165  163  166 1   
   166  163  172 1   
   167  164  165 2   
   168  164  177 1   
   169  166  167 1   
   170  166  173 1   
   171  166  174 1   
   172  167  168 1   
   173  167  175 1   
   174  167  176 1   
   175  168  169 1   
   176  168  170 1   
   177  177  178 1   
   178  177  182 1   
   179  178  179 1   
   180  178  180 1   
   181  178  181 1   
   182  184  185 1   
   183  184  186 1   
   184  187  188 1   
   185  187  189 1   
@<TRIPOS>SUBSTRUCTURE
     1 MOL         1 TEMP              0 ****  ****    0 ROOT
