@<TRIPOS>MOLECULE
MOL
  189   185     1     0     0
SMALL
resp


@<TRIPOS>ATOM
      1 C1         -0.5840    3.1060    5.6210 c3        1 MOL     -0.219259
      2 C2         -0.8110    2.4310    4.2750 c         1 MOL      0.557730
      3 O1         -0.0980    2.7910    3.2910 o         1 MOL     -0.652732
      4 H1          0.3320    3.6970    5.5810 hc        1 MOL      0.058856
      5 H2         -1.4270    3.7580    5.8480 hc        1 MOL      0.058856
      6 H3         -0.4920    2.3470    6.3980 hc        1 MOL      0.058856
      7 N1         -1.8930    1.7830    4.0510 n         1 MOL     -0.230174
      8 C3         -2.4280    1.5450    2.7210 c3        1 MOL      0.094873
      9 C4         -2.9560    2.8550    2.1810 c         1 MOL      0.303296
     10 O2         -4.0980    3.3040    2.4580 o         1 MOL     -0.517012
     11 C5         -3.4010    0.3880    2.7820 c3        1 MOL     -0.375597
     12 C6         -4.0270   -0.0020    1.4630 c         1 MOL      0.970783
     13 O3         -3.6360    0.6050    0.4270 o         1 MOL     -0.730471
     14 O4         -4.9830   -0.8480    1.4420 o         1 MOL     -0.730471
     15 H4         -2.4310    1.5310    4.8710 hn        1 MOL      0.238457
     16 H5         -1.5990    1.2640    2.0690 h1        1 MOL      0.021697
     17 H6         -4.2290    0.5930    3.4600 hc        1 MOL      0.083801
     18 H7         -2.9130   -0.5210    3.1580 hc        1 MOL      0.083801
     19 N2         -2.2430    3.5800    1.3090 n         1 MOL     -0.149165
     20 C7         -2.6500    4.8210    0.7290 c3        1 MOL     -0.013896
     21 C8         -3.8380    4.8520   -0.2790 c         1 MOL      0.419133
     22 O5         -4.5320    5.8780   -0.2790 o         1 MOL     -0.559744
     23 C9         -1.4350    5.3360   -0.0520 c3        1 MOL     -0.092197
     24 C10        -0.2820    5.8320    0.8280 c3        1 MOL     -0.073125
     25 C11         0.7250    6.5960   -0.0420 c3        1 MOL      0.116807
     26 C12         1.8450    7.0690    0.8600 c3        1 MOL      0.016772
     27 N3          2.9160    7.6110    0.0160 n4        1 MOL     -0.322099
     28 H8         -1.2950    3.2380    1.2030 hn        1 MOL      0.307587
     29 H9         -2.9670    5.4320    1.5770 h1        1 MOL      0.079926
     30 H10        -1.7150    6.1170   -0.7550 hc        1 MOL      0.030755
     31 H11        -1.0790    4.4460   -0.5790 hc        1 MOL      0.030755
     32 H12         0.1820    4.9520    1.2690 hc        1 MOL      0.039425
     33 H13        -0.7410    6.5150    1.5400 hc        1 MOL      0.039425
     34 H14         0.3810    7.5040   -0.5450 hc        1 MOL     -0.000748
     35 H15         1.1370    5.9090   -0.7810 hc        1 MOL     -0.000748
     36 H16         2.2580    6.2120    1.4010 hx        1 MOL      0.080271
     37 H17         1.4690    7.8530    1.5090 hx        1 MOL      0.080271
     38 H18         3.3670    6.8970   -0.5380 hn        1 MOL      0.311289
     39 H19         2.6440    8.3810   -0.5760 hn        1 MOL      0.311289
     40 H20         3.6350    7.9500    0.6390 hn        1 MOL      0.311289
     41 N4         -4.1370    3.7800   -0.9930 n         1 MOL     -0.121263
     42 C13        -5.1310    3.6550   -2.0280 c3        1 MOL      0.051393
     43 C14        -6.3400    2.7700   -1.5950 c         1 MOL      0.450238
     44 O6         -7.3190    2.7110   -2.3490 o         1 MOL     -0.499083
     45 C15        -4.5820    3.3610   -3.4440 c3        1 MOL     -0.360924
     46 C16        -3.6220    2.2020   -3.5510 c         1 MOL      0.861092
     47 O7         -2.7170    2.1040   -4.4250 o         1 MOL     -0.729077
     48 O8         -3.6620    1.3230   -2.6480 o         1 MOL     -0.729077
     49 H21        -3.5180    2.9860   -0.9170 hn        1 MOL      0.096208
     50 H22        -5.5960    4.6410   -2.0280 h1        1 MOL      0.086296
     51 H23        -3.9850    4.2300   -3.7280 hc        1 MOL      0.090165
     52 H24        -5.4440    3.1400   -4.0720 hc        1 MOL      0.090165
     53 N5         -6.3180    2.1430   -0.3800 n         1 MOL     -0.336423
     54 C17        -7.3560    1.2240    0.0370 c3        1 MOL     -0.143912
     55 C18        -7.5570    0.0570   -0.8880 c         1 MOL      0.533789
     56 O9         -8.7140   -0.2940   -1.1040 o         1 MOL     -0.567866
     57 H25        -5.3900    2.0110    0.0040 hn        1 MOL      0.235024
     58 H26        -8.2980    1.7540   -0.0870 h1        1 MOL      0.103525
     59 H27        -7.2660    0.8950    1.0710 h1        1 MOL      0.103525
     60 N6         -6.4630   -0.6000   -1.3950 n         1 MOL     -0.176492
     61 C19        -6.5810   -1.8850   -2.0450 c3        1 MOL      0.015626
     62 C20        -6.5860   -3.1200   -1.1040 c         1 MOL      0.434130
     63 O10        -6.5560   -4.2310   -1.6320 o         1 MOL     -0.520007
     64 C21        -5.5760   -1.9850   -3.1850 c3        1 MOL     -0.306589
     65 C22        -4.1390   -2.1950   -2.7140 c         1 MOL      0.688886
     66 O11        -3.2430   -1.9820   -3.6110 o         1 MOL     -0.632412
     67 O12        -3.7500   -2.2830   -1.5150 o         1 MOL     -0.632412
     68 H28        -5.5020   -0.3390   -1.1990 hn        1 MOL      0.122222
     69 H29        -7.5970   -1.9010   -2.4370 h1        1 MOL      0.101871
     70 H30        -5.7760   -1.0490   -3.7060 hc        1 MOL      0.112120
     71 H31        -5.8370   -2.7610   -3.9080 hc        1 MOL      0.112120
     72 N7         -6.6970   -2.9530    0.1960 n         1 MOL     -0.390937
     73 C23        -6.5180   -3.9320    1.2500 c3        1 MOL      0.099771
     74 C24        -5.0550   -4.4510    1.3160 c         1 MOL      0.397239
     75 O13        -4.9660   -5.5260    1.9410 o         1 MOL     -0.567086
     76 H32        -6.8790   -1.9970    0.4500 hn        1 MOL      0.286914
     77 H33        -7.2280   -4.7460    1.1210 h1        1 MOL      0.059869
     78 H34        -6.8150   -3.6920    2.2650 h1        1 MOL      0.059869
     79 N8         -4.0320   -3.7870    0.7980 n         1 MOL      0.022454
     80 C25        -2.6310   -4.2070    0.8440 c3        1 MOL     -0.236360
     81 C26        -1.5870   -3.0640    1.0460 c         1 MOL      0.703723
     82 O14        -1.7580   -1.8480    0.7050 o         1 MOL     -0.625263
     83 C27        -2.1990   -5.1120   -0.2930 c3        1 MOL      0.464083
     84 C28        -2.9300   -6.4410   -0.2360 c3        1 MOL     -0.263661
     85 O15        -2.4620   -4.6220   -1.5940 oh        1 MOL     -0.663187
     86 H35        -4.1970   -2.8600    0.4220 hn        1 MOL     -0.053239
     87 H36        -2.4930   -4.7440    1.7830 h1        1 MOL      0.083658
     88 H37        -1.1310   -5.3480   -0.2400 h1        1 MOL     -0.020952
     89 H38        -2.9300   -3.7940   -1.4600 ho        1 MOL      0.458622
     90 H39        -2.3820   -7.2110   -0.7890 hc        1 MOL      0.057466
     91 H40        -2.9020   -6.7890    0.7980 hc        1 MOL      0.057466
     92 H41        -3.9850   -6.3310   -0.4850 hc        1 MOL      0.057466
     93 N9         -0.4610   -3.5060    1.5680 n         1 MOL     -0.684103
     94 C29         0.7680   -2.7720    1.7950 c3        1 MOL      0.182823
     95 C30         1.9180   -3.3540    1.0010 c         1 MOL      0.554013
     96 O16         2.0560   -4.5300    0.9350 o         1 MOL     -0.561846
     97 C31         0.9450   -2.7260    3.3420 c3        1 MOL      0.107740
     98 C32         0.0240   -1.5630    3.9370 c3        1 MOL      0.004740
     99 C33         2.3870   -2.6630    3.9280 c3        1 MOL     -0.505014
    100 C34         0.1120   -1.1680    5.3870 c3        1 MOL     -0.244340
    101 H42        -0.4650   -4.4820    1.8110 hn        1 MOL      0.318613
    102 H43         0.7600   -1.7190    1.5240 h1        1 MOL      0.083932
    103 H44         0.5370   -3.6690    3.7070 hc        1 MOL      0.024824
    104 H45        -1.0230   -1.6930    3.6630 hc        1 MOL      0.032181
    105 H46         0.2560   -0.6350    3.4250 hc        1 MOL      0.032181
    106 H47         2.7130   -1.6240    3.8180 hc        1 MOL      0.131925
    107 H48         2.3150   -2.9590    4.9800 hc        1 MOL      0.131925
    108 H49         3.0270   -3.3590    3.3990 hc        1 MOL      0.131925
    109 H50         0.0210   -2.0610    6.0040 hc        1 MOL      0.056343
    110 H51         1.0510   -0.7700    5.7710 hc        1 MOL      0.056343
    111 H52        -0.7650   -0.5430    5.5450 hc        1 MOL      0.056343
    112 N10         2.6620   -2.4500    0.4030 n         1 MOL     -0.175700
    113 C35         3.7420   -2.7210   -0.5040 c3        1 MOL      0.026594
    114 C36         5.0520   -2.6490    0.2720 c         1 MOL      0.366999
    115 O17         5.0040   -2.3100    1.4600 o         1 MOL     -0.350970
    116 C37         3.7590   -1.8160   -1.7430 c3        1 MOL      0.116000
    117 C38         2.5750   -2.0760   -2.6740 c3        1 MOL     -0.566965
    118 O18         3.7030   -0.4630   -1.3980 oh        1 MOL     -0.354418
    119 H53         2.2510   -1.5230    0.3360 hn        1 MOL      0.057119
    120 H54         3.6510   -3.7090   -0.9610 h1        1 MOL      0.085601
    121 H55         4.6510   -2.0770   -2.3010 h1        1 MOL      0.025649
    122 H56         3.1230   -0.0760   -2.0600 ho        1 MOL      0.371237
    123 H57         2.6280   -1.3920   -3.5200 hc        1 MOL      0.171390
    124 H58         2.5820   -3.1240   -2.9460 hc        1 MOL      0.171390
    125 H59         1.6360   -1.9730   -2.1310 hc        1 MOL      0.171390
    126 N11         6.2450   -2.8780   -0.3560 n         1 MOL     -0.379130
    127 C39         7.5120   -2.4070    0.2140 c3        1 MOL      0.043525
    128 C40         7.4690   -0.8700    0.4430 c         1 MOL      0.241958
    129 O19         8.0120   -0.3680    1.4660 o         1 MOL     -0.491840
    130 C41         8.5820   -2.6180   -0.8460 c3        1 MOL      0.188501
    131 C42         9.1590   -4.0460   -1.1120 c3        1 MOL     -0.389168
    132 O20         8.1680   -2.1480   -2.0660 oh        1 MOL     -0.553534
    133 H60         6.3140   -3.2580   -1.2920 hn        1 MOL      0.276757
    134 H61         7.8050   -2.9240    1.1250 h1        1 MOL      0.126580
    135 H62         9.4430   -2.0580   -0.4910 h1        1 MOL      0.057752
    136 H63         8.9530   -1.9700   -2.6040 ho        1 MOL      0.344075
    137 H64         9.9680   -3.9750   -1.8420 hc        1 MOL      0.115873
    138 H65         9.4850   -4.6340   -0.2630 hc        1 MOL      0.115873
    139 H66         8.4660   -4.7280   -1.6030 hc        1 MOL      0.115873
    140 N12         6.7460   -0.1560   -0.3990 n         1 MOL      0.088450
    141 C43         6.7500    1.3210   -0.5460 c3        1 MOL     -0.315648
    142 C44         5.6800    1.9960    0.2240 c         1 MOL      0.563978
    143 O21         5.6690    3.2230    0.2640 o         1 MOL     -0.582683
    144 C45         6.6810    1.8700   -1.9250 c3        1 MOL      0.017981
    145 C46         7.8510    1.5200   -2.8670 c3        1 MOL      0.218345
    146 C47         7.4150    1.8110   -4.2580 c3        1 MOL     -0.012142
    147 C48         8.5030    1.6580   -5.3560 c3        1 MOL     -0.126321
    148 N13         9.1780    0.3720   -5.3270 n4        1 MOL     -0.088224
    149 H67         6.2610   -0.7290   -1.0700 hn        1 MOL      0.130916
    150 H68         7.6390    1.6590   -0.0050 h1        1 MOL      0.147455
    151 H69         6.7230    2.9470   -1.8060 hc        1 MOL      0.036356
    152 H70         5.6980    1.6480   -2.3630 hc        1 MOL      0.036356
    153 H71         8.0830    0.4490   -2.8090 hc        1 MOL     -0.065110
    154 H72         8.7510    2.0640   -2.5930 hc        1 MOL     -0.065110
    155 H73         6.9870    2.8090   -4.2200 hc        1 MOL      0.014943
    156 H74         6.5420    1.1790   -4.4530 hc        1 MOL      0.014943
    157 H75         9.2380    2.4200   -5.1210 hx        1 MOL      0.118439
    158 H76         8.1800    1.8110   -6.3810 hx        1 MOL      0.118439
    159 H77         9.8680    0.3240   -6.0530 hn        1 MOL      0.211720
    160 H78         9.7460    0.2590   -4.5010 hn        1 MOL      0.211720
    161 H79         8.5590   -0.3910   -5.5270 hn        1 MOL      0.211720
    162 N14         4.7220    1.2300    0.7310 n         1 MOL      0.015531
    163 C49         3.8230    1.5540    1.8540 c3        1 MOL     -0.189807
    164 C50         4.4310    0.9390    3.1520 c         1 MOL      0.440068
    165 O22         4.2730    1.6520    4.1720 o         1 MOL     -0.549747
    166 C51         2.4280    1.0510    1.5280 c3        1 MOL      0.266687
    167 C52         1.7360    1.7760    0.4150 c3        1 MOL     -0.062730
    168 C53         0.4500    1.1170   -0.0810 c         1 MOL      0.622968
    169 O23         0.3250   -0.0570   -0.4130 o         1 MOL     -0.697544
    170 O24        -0.5020    1.9010   -0.2500 o         1 MOL     -0.697544
    171 H80         4.7560    0.2920    0.3600 hn        1 MOL     -0.274658
    172 H81         3.8290    2.6390    1.9400 h1        1 MOL      0.115403
    173 H82         1.8220    0.9890    2.4280 hc        1 MOL     -0.013023
    174 H83         2.6080    0.0700    1.0850 hc        1 MOL     -0.013023
    175 H84         2.4770    2.0080   -0.3430 hc        1 MOL     -0.013105
    176 H85         1.4460    2.7450    0.8330 hc        1 MOL     -0.013105
    177 N15         5.1000   -0.1940    3.2310 n         1 MOL     -0.059717
    178 C54         5.6670   -0.6380    4.4440 c3        1 MOL     -0.326126
    179 H86         6.6460   -0.1770    4.5770 h1        1 MOL      0.115774
    180 H87         5.0180   -0.3570    5.2730 h1        1 MOL      0.115774
    181 H88         5.7780   -1.7220    4.4180 h1        1 MOL      0.115774
    182 H89         5.2180   -0.8290    2.4460 hn        1 MOL      0.185508
    183 Ca1        -2.0330   -0.3230   -1.3960 Ca        1 MOL      1.755589
    184 O25        -0.5570   -2.4290   -2.6990 oh        1 MOL     -0.863469
    185 H90        -0.2380   -2.4280   -3.5940 ho        1 MOL      0.400794
    186 H91        -0.6280   -3.3670   -2.4780 ho        1 MOL      0.400794
    187 O26        -0.8820    0.4970   -3.5610 oh        1 MOL     -0.863469
    188 H92        -1.4790    1.0560   -4.0590 ho        1 MOL      0.400794
    189 H93        -0.2130    0.2310   -4.2080 ho        1 MOL      0.400794
@<TRIPOS>BOND
     1    1    2 1   
     2    1    4 1   
     3    1    5 1   
     4    1    6 1   
     5    2    3 2   
     6    2    7 1   
     7    7    8 1   
     8    7   15 1   
     9    8    9 1   
    10    8   11 1   
    11    8   16 1   
    12    9   10 2   
    13    9   19 1   
    14   11   12 1   
    15   11   17 1   
    16   11   18 1   
    17   12   13 1   
    18   12   14 1   
    19   19   20 1   
    20   19   28 1   
    21   20   21 1   
    22   20   23 1   
    23   20   29 1   
    24   21   22 2   
    25   21   41 1   
    26   23   24 1   
    27   23   30 1   
    28   23   31 1   
    29   24   25 1   
    30   24   32 1   
    31   24   33 1   
    32   25   26 1   
    33   25   34 1   
    34   25   35 1   
    35   26   27 1   
    36   26   36 1   
    37   26   37 1   
    38   27   38 1   
    39   27   39 1   
    40   27   40 1   
    41   41   42 1   
    42   41   49 1   
    43   42   43 1   
    44   42   45 1   
    45   42   50 1   
    46   43   44 2   
    47   43   53 1   
    48   45   46 1   
    49   45   51 1   
    50   45   52 1   
    51   46   47 1   
    52   46   48 1   
    53   53   54 1   
    54   53   57 1   
    55   54   55 1   
    56   54   58 1   
    57   54   59 1   
    58   55   56 2   
    59   55   60 1   
    60   60   61 1   
    61   60   68 1   
    62   61   62 1   
    63   61   64 1   
    64   61   69 1   
    65   62   63 2   
    66   62   72 1   
    67   64   65 1   
    68   64   70 1   
    69   64   71 1   
    70   65   66 1   
    71   65   67 1   
    72   72   73 1   
    73   72   76 1   
    74   73   74 1   
    75   73   77 1   
    76   73   78 1   
    77   74   75 2   
    78   74   79 1   
    79   79   80 1   
    80   79   86 1   
    81   80   81 1   
    82   80   83 1   
    83   80   87 1   
    84   81   82 2   
    85   81   93 1   
    86   83   84 1   
    87   83   85 1   
    88   83   88 1   
    89   84   90 1   
    90   84   91 1   
    91   84   92 1   
    92   85   89 1   
    93   93   94 1   
    94   93  101 1   
    95   94   95 1   
    96   94   97 1   
    97   94  102 1   
    98   95   96 2   
    99   95  112 1   
   100   97   98 1   
   101   97   99 1   
   102   97  103 1   
   103   98  100 1   
   104   98  104 1   
   105   98  105 1   
   106   99  106 1   
   107   99  107 1   
   108   99  108 1   
   109  100  109 1   
   110  100  110 1   
   111  100  111 1   
   112  112  113 1   
   113  112  119 1   
   114  113  114 1   
   115  113  116 1   
   116  113  120 1   
   117  114  115 2   
   118  114  126 1   
   119  116  117 1   
   120  116  118 1   
   121  116  121 1   
   122  117  123 1   
   123  117  124 1   
   124  117  125 1   
   125  118  122 1   
   126  126  127 1   
   127  126  133 1   
   128  127  128 1   
   129  127  130 1   
   130  127  134 1   
   131  128  129 2   
   132  128  140 1   
   133  130  131 1   
   134  130  132 1   
   135  130  135 1   
   136  131  137 1   
   137  131  138 1   
   138  131  139 1   
   139  132  136 1   
   140  140  141 1   
   141  140  149 1   
   142  141  142 1   
   143  141  144 1   
   144  141  150 1   
   145  142  143 2   
   146  142  162 1   
   147  144  145 1   
   148  144  151 1   
   149  144  152 1   
   150  145  146 1   
   151  145  153 1   
   152  145  154 1   
   153  146  147 1   
   154  146  155 1   
   155  146  156 1   
   156  147  148 1   
   157  147  157 1   
   158  147  158 1   
   159  148  159 1   
   160  148  160 1   
   161  148  161 1   
   162  162  163 1   
   163  162  171 1   
   164  163  164 1   
   165  163  166 1   
   166  163  172 1   
   167  164  165 2   
   168  164  177 1   
   169  166  167 1   
   170  166  173 1   
   171  166  174 1   
   172  167  168 1   
   173  167  175 1   
   174  167  176 1   
   175  168  169 1   
   176  168  170 1   
   177  177  178 1   
   178  177  182 1   
   179  178  179 1   
   180  178  180 1   
   181  178  181 1   
   182  184  185 1   
   183  184  186 1   
   184  187  188 1   
   185  187  189 1   
@<TRIPOS>SUBSTRUCTURE
     1 MOL         1 TEMP              0 ****  ****    0 ROOT
