@<TRIPOS>MOLECULE
MOL
  183   181     1     0     0
SMALL
resp


@<TRIPOS>ATOM
      1 C1         -0.7990    2.1170    6.1390 c3        1 MOL     -0.289968
      2 C2         -1.1790    2.0860    4.6020 c         1 MOL      0.801245
      3 O1         -0.4980    2.6920    3.8310 o         1 MOL     -0.586556
      4 H1         -1.2540    1.2650    6.6430 hc        1 MOL      0.058262
      5 H2          0.2850    2.0660    6.2470 hc        1 MOL      0.058262
      6 H3         -1.1660    3.0420    6.5850 hc        1 MOL      0.058262
      7 N1         -2.2470    1.4340    4.2410 n         1 MOL     -0.696441
      8 C3         -2.7190    1.3710    2.8730 c3        1 MOL      0.184056
      9 C4         -3.2960    2.7830    2.4790 c         1 MOL      0.635329
     10 O2         -4.0700    3.3860    3.2210 o         1 MOL     -0.615411
     11 C5         -3.8690    0.3140    2.6520 c3        1 MOL     -0.203927
     12 C6         -4.4870    0.3220    1.3300 c         1 MOL      0.659050
     13 O3         -5.6900   -0.0800    1.3100 o         1 MOL     -0.623302
     14 O4         -3.9440    0.7610    0.2920 o         1 MOL     -0.623302
     15 H4         -2.7400    0.8920    4.9450 hn        1 MOL      0.331013
     16 H5         -1.8340    1.0730    2.3130 h1        1 MOL      0.067243
     17 H6         -4.5840    0.5510    3.4290 hc        1 MOL      0.033373
     18 H7         -3.4840   -0.7050    2.7400 hc        1 MOL      0.033373
     19 N2         -2.9050    3.2890    1.2910 n         1 MOL     -0.284573
     20 C7         -3.2140    4.6570    0.8000 c3        1 MOL      0.050743
     21 C8         -4.2760    4.4790   -0.3980 c         1 MOL      0.241098
     22 O5         -4.9080    5.4880   -0.7830 o         1 MOL     -0.524221
     23 C9         -1.8670    5.3610    0.3110 c3        1 MOL      0.343343
     24 C10        -0.7850    5.3810    1.3870 c3        1 MOL      0.031008
     25 C11        -2.0490    6.8030   -0.1910 c3        1 MOL     -0.405540
     26 C12        -1.0660    6.1140    2.7340 c3        1 MOL     -0.188507
     27 H8         -2.2850    2.6720    0.7790 hn        1 MOL      0.090579
     28 H9         -3.5650    5.2900    1.6170 h1        1 MOL      0.051705
     29 H10        -1.4750    4.6970   -0.4550 hc        1 MOL     -0.025080
     30 H11         0.0060    5.8820    0.8220 hc        1 MOL     -0.008421
     31 H12        -0.4010    4.3870    1.6020 hc        1 MOL     -0.008421
     32 H13        -1.0970    7.1750   -0.5470 hc        1 MOL      0.083778
     33 H14        -2.6580    6.7890   -1.0950 hc        1 MOL      0.083778
     34 H15        -2.6110    7.4950    0.4290 hc        1 MOL      0.083778
     35 H16        -1.8000    5.5490    3.3100 hc        1 MOL      0.032445
     36 H17        -0.2190    6.3580    3.3760 hc        1 MOL      0.032445
     37 H18        -1.3960    7.1280    2.4920 hc        1 MOL      0.032445
     38 N3         -4.3890    3.2740   -1.0680 n         1 MOL     -0.047332
     39 C13        -5.2910    3.0020   -2.2370 c3        1 MOL     -0.206186
     40 C14        -6.7360    2.5050   -1.7630 c         1 MOL      0.526663
     41 O6         -7.6510    2.5090   -2.5320 o         1 MOL     -0.543793
     42 C15        -4.5730    2.1520   -3.2830 c3        1 MOL      0.102010
     43 C16        -3.0570    2.2480   -3.4670 c         1 MOL      0.616046
     44 O7         -2.3380    1.3090   -3.0560 o         1 MOL     -0.675320
     45 O8         -2.5770    3.1450   -4.1850 o         1 MOL     -0.675320
     46 H19        -3.9320    2.4360   -0.7200 hn        1 MOL      0.145157
     47 H20        -5.4920    3.8920   -2.8300 h1        1 MOL      0.117282
     48 H21        -5.0010    2.3540   -4.2660 hc        1 MOL     -0.033869
     49 H22        -4.7910    1.1570   -2.9080 hc        1 MOL     -0.033869
     50 N4         -6.8820    2.1990   -0.4610 n         1 MOL     -0.314118
     51 C17        -8.1260    1.5940    0.1030 c3        1 MOL     -0.210040
     52 C18        -8.4800    0.2000   -0.4970 c         1 MOL      0.497333
     53 O9         -9.6350   -0.2550   -0.4140 o         1 MOL     -0.590423
     54 H23        -6.0480    2.1390    0.0960 hn        1 MOL      0.221618
     55 H24        -8.9510    2.2920   -0.0940 h1        1 MOL      0.117292
     56 H25        -8.0370    1.5070    1.1780 h1        1 MOL      0.117292
     57 N5         -7.4100   -0.5220   -0.9050 n         1 MOL     -0.192866
     58 C19        -7.5200   -1.8640   -1.5120 c3        1 MOL     -0.005394
     59 C20        -7.4310   -3.0260   -0.5290 c         1 MOL      0.373775
     60 O10        -7.6240   -4.2200   -0.8010 o         1 MOL     -0.547451
     61 C21        -6.5300   -2.0010   -2.6240 c3        1 MOL     -0.372277
     62 C22        -5.0800   -1.6670   -2.2980 c         1 MOL      0.865163
     63 O11        -4.2510   -1.2250   -3.1170 o         1 MOL     -0.795862
     64 O12        -4.7190   -1.9260   -1.1230 o         1 MOL     -0.795862
     65 H26        -6.5010   -0.2950   -0.5280 hn        1 MOL      0.246290
     66 H27        -8.5100   -1.8800   -1.9620 h1        1 MOL      0.104012
     67 H28        -6.8590   -1.3480   -3.4300 hc        1 MOL      0.096161
     68 H29        -6.4210   -3.0580   -2.8630 hc        1 MOL      0.096161
     69 N6         -7.0410   -2.6480    0.6800 n         1 MOL     -0.142652
     70 C23        -6.8270   -3.5750    1.8240 c3        1 MOL     -0.076248
     71 C24        -5.4160   -4.3250    1.7770 c         1 MOL      0.528385
     72 O13        -5.3350   -5.3610    2.4020 o         1 MOL     -0.583244
     73 H30        -6.7560   -1.6930    0.8290 hn        1 MOL      0.146234
     74 H31        -7.6360   -4.2950    1.9370 h1        1 MOL      0.051838
     75 H32        -6.8620   -2.8820    2.6650 h1        1 MOL      0.051838
     76 N7         -4.4090   -3.7570    1.1430 n         1 MOL     -0.204474
     77 C25        -3.0570   -4.2810    1.1650 c3        1 MOL     -0.020537
     78 C26        -2.0280   -3.1610    1.1720 c         1 MOL      0.617481
     79 O14        -2.3700   -1.9990    0.9580 o         1 MOL     -0.652444
     80 C27        -2.7390   -5.3100    0.0540 c3        1 MOL      0.050784
     81 C28        -3.1260   -4.9910   -1.4170 c3        1 MOL     -0.158859
     82 C29        -2.0030   -4.2450   -2.0950 c         1 MOL      0.683814
     83 N8         -1.2340   -4.8770   -2.9400 n         1 MOL     -0.807442
     84 O15        -1.7200   -3.0650   -1.8870 o         1 MOL     -0.615782
     85 H33        -4.6050   -2.8550    0.7350 hn        1 MOL      0.241785
     86 H34        -3.0080   -4.8030    2.1170 h1        1 MOL      0.034092
     87 H35        -3.2240   -6.2350    0.3570 hc        1 MOL     -0.006644
     88 H36        -1.6790   -5.5720    0.1130 hc        1 MOL     -0.006644
     89 H37        -4.0850   -4.5080   -1.5670 hc        1 MOL      0.058133
     90 H38        -3.1530   -5.9010   -2.0010 hc        1 MOL      0.058133
     91 H39        -1.3820   -5.8220   -3.2600 hn        1 MOL      0.369410
     92 H40        -0.6120   -4.2700   -3.4410 hn        1 MOL      0.369410
     93 N9         -0.8320   -3.4940    1.5490 n         1 MOL     -0.382971
     94 C30         0.3060   -2.5920    1.7140 c3        1 MOL      0.059335
     95 C31         1.4350   -3.1590    0.8150 c         1 MOL      0.486695
     96 O16         1.8910   -4.2150    1.1670 o         1 MOL     -0.565476
     97 C32         0.7370   -2.5240    3.2180 c3        1 MOL      0.216370
     98 C33         1.9040   -1.4980    3.3410 c3        1 MOL     -0.184154
     99 C34        -0.4110   -2.0060    4.0810 c3        1 MOL     -0.184154
    100 H41        -0.6470   -4.4460    1.8330 hn        1 MOL      0.241542
    101 H42         0.0750   -1.5850    1.3610 h1        1 MOL      0.080019
    102 H43         1.0670   -3.4790    3.6260 hc        1 MOL     -0.029934
    103 H44         2.7190   -1.9070    2.7450 hc        1 MOL      0.026351
    104 H45         1.5480   -0.4850    3.1350 hc        1 MOL      0.026351
    105 H46         2.2370   -1.3340    4.3610 hc        1 MOL      0.026351
    106 H47        -1.2370   -2.7120    4.0600 hc        1 MOL      0.026351
    107 H48        -0.0730   -1.9760    5.1060 hc        1 MOL      0.026351
    108 H49        -0.6590   -0.9760    3.8200 hc        1 MOL      0.026351
    109 N10         1.7930   -2.4260   -0.2480 n         1 MOL     -0.372756
    110 C35         3.0880   -2.6770   -0.9060 c3        1 MOL      0.253003
    111 C36         4.2690   -2.0400   -0.2570 c         1 MOL      0.241301
    112 O17         4.2300   -1.1350    0.5870 o         1 MOL     -0.163025
    113 C37         2.9240   -2.3130   -2.3930 c3        1 MOL     -0.415532
    114 C38         2.9710   -0.8140   -2.6000 c         1 MOL      0.606074
    115 N11         1.9160   -0.0960   -2.8990 n         1 MOL     -0.793079
    116 O18         3.9710   -0.1830   -2.5240 o         1 MOL     -0.429888
    117 H50         1.2460   -1.6170   -0.5020 hn        1 MOL      0.154932
    118 H51         3.2040   -3.7650   -0.8780 h1        1 MOL      0.028604
    119 H52         2.0080   -2.7350   -2.8200 hc        1 MOL      0.127575
    120 H53         3.7230   -2.8190   -2.9330 hc        1 MOL      0.127575
    121 H54         0.9840   -0.4790   -2.7820 hn        1 MOL      0.392550
    122 H55         2.1000    0.8840   -3.0520 hn        1 MOL      0.392550
    123 N12         5.4370   -2.4510   -0.6970 n         1 MOL     -0.520055
    124 C39         6.7500   -1.9210   -0.1500 c3        1 MOL      0.263531
    125 C40         6.9650   -0.3640   -0.2140 c         1 MOL      0.661246
    126 O19         7.7140    0.2520    0.5270 o         1 MOL     -0.480717
    127 C41         7.8640   -2.6290   -0.9440 c3        1 MOL     -0.202153
    128 C42         9.1300   -2.3920   -0.2260 ca        1 MOL      0.056501
    129 C43         9.3630   -2.8190    1.0520 ca        1 MOL     -0.148368
    130 C44        10.2150   -1.7770   -0.9070 ca        1 MOL     -0.148368
    131 C45        10.5230   -2.3800    1.7450 ca        1 MOL     -0.372968
    132 C46        11.4330   -1.4790   -0.2870 ca        1 MOL     -0.372968
    133 C47        11.5430   -1.7680    1.0280 ca        1 MOL      0.494939
    134 O20        12.6270   -1.3650    1.7160 oh        1 MOL     -0.592452
    135 H56         5.4480   -3.0830   -1.4870 hn        1 MOL      0.300659
    136 H57         6.8460   -2.1760    0.9090 h1        1 MOL     -0.003458
    137 H58         7.7750   -2.2900   -1.9840 hc        1 MOL      0.059951
    138 H59         7.6750   -3.6990   -0.8740 hc        1 MOL      0.059951
    139 H60         8.5760   -3.2480    1.6540 ha        1 MOL      0.137016
    140 H61        10.0440   -1.5490   -1.9490 ha        1 MOL      0.137016
    141 H62        10.5710   -2.4870    2.8120 ha        1 MOL      0.185934
    142 H63        12.1270   -0.8290   -0.8110 ha        1 MOL      0.185934
    143 H64        13.3640   -0.9980    1.2240 ho        1 MOL      0.397710
    144 N13         6.3400    0.2960   -1.1810 n         1 MOL     -0.478556
    145 C48         6.3290    1.7800   -1.3140 c3        1 MOL      0.082364
    146 C49         5.5100    2.3830   -0.1000 c         1 MOL      0.285043
    147 O21         5.9100    3.3670    0.5090 o         1 MOL     -0.472237
    148 C50         6.0280    2.3410   -2.7670 c3        1 MOL      0.128482
    149 C51         7.1600    2.0020   -3.7400 c3        1 MOL     -0.115970
    150 C52         8.2580    3.0400   -3.7690 c         1 MOL      0.719656
    151 O22         9.1190    3.1280   -2.8330 o         1 MOL     -0.743671
    152 O23         8.3760    3.6810   -4.8180 o         1 MOL     -0.743671
    153 H65         5.8260   -0.2650   -1.8420 hn        1 MOL      0.171188
    154 H66         7.3660    2.0540   -1.0920 h1        1 MOL      0.053216
    155 H67         5.8870    3.4200   -2.7640 hc        1 MOL     -0.019657
    156 H68         5.0890    1.8760   -3.0740 hc        1 MOL     -0.019657
    157 H69         6.6540    1.8360   -4.6960 hc        1 MOL     -0.018467
    158 H70         7.7610    1.1100   -3.5380 hc        1 MOL     -0.018467
    159 N14         4.2620    1.9570    0.1150 n         1 MOL     -0.194678
    160 C53         3.4690    2.2940    1.3560 c3        1 MOL     -0.039758
    161 C54         4.1230    1.9740    2.6830 c         1 MOL      0.450512
    162 O24         3.9160    2.6920    3.6380 o         1 MOL     -0.547330
    163 C55         2.0620    1.5230    1.1910 c3        1 MOL     -0.008980
    164 C56         1.3100    1.9110   -0.1210 c3        1 MOL      0.082406
    165 C57         0.0440    1.0750   -0.1940 c         1 MOL      0.550473
    166 O25        -1.0930    1.5870   -0.3110 o         1 MOL     -0.668687
    167 O26         0.0640   -0.1410   -0.4900 o         1 MOL     -0.668687
    168 H71         4.0280    1.1430   -0.4310 hn        1 MOL      0.118037
    169 H72         3.1250    3.3330    1.3680 h1        1 MOL      0.086173
    170 H73         1.4350    1.6480    2.0710 hc        1 MOL      0.074230
    171 H74         2.3180    0.4650    1.1100 hc        1 MOL      0.074230
    172 H75         2.0090    1.7500   -0.9410 hc        1 MOL     -0.032066
    173 H76         1.0930    2.9700   -0.0020 hc        1 MOL     -0.032066
    174 N15         4.9020    0.8540    2.6810 n         1 MOL     -0.034496
    175 C58         5.6490    0.3580    3.7720 c3        1 MOL     -0.040082
    176 H77         5.1500   -0.5180    4.1850 h1        1 MOL      0.025175
    177 H78         6.6470    0.0800    3.4330 h1        1 MOL      0.025175
    178 H79         5.7260    1.1270    4.5390 h1        1 MOL      0.025175
    179 H80         4.8080    0.2690    1.8670 hn        1 MOL     -0.072917
    180 Ca1        -2.3900   -0.5230   -1.3960 Ca        1 MOL      1.713596
    181 O27        -0.8210   -0.7830   -3.7790 oh        1 MOL     -0.757468
    182 H81        -0.5490   -1.1260   -4.6270 ho        1 MOL      0.368354
    183 H82        -1.1070    0.1060   -3.9560 ho        1 MOL      0.368354
@<TRIPOS>BOND
     1    1    2 1   
     2    1    4 1   
     3    1    5 1   
     4    1    6 1   
     5    2    3 2   
     6    2    7 1   
     7    7    8 1   
     8    7   15 1   
     9    8    9 1   
    10    8   11 1   
    11    8   16 1   
    12    9   10 2   
    13    9   19 1   
    14   11   12 1   
    15   11   17 1   
    16   11   18 1   
    17   12   13 1   
    18   12   14 1   
    19   19   20 1   
    20   19   27 1   
    21   20   21 1   
    22   20   23 1   
    23   20   28 1   
    24   21   22 2   
    25   21   38 1   
    26   23   24 1   
    27   23   25 1   
    28   23   29 1   
    29   24   26 1   
    30   24   30 1   
    31   24   31 1   
    32   25   32 1   
    33   25   33 1   
    34   25   34 1   
    35   26   35 1   
    36   26   36 1   
    37   26   37 1   
    38   38   39 1   
    39   38   46 1   
    40   39   40 1   
    41   39   42 1   
    42   39   47 1   
    43   40   41 2   
    44   40   50 1   
    45   42   43 1   
    46   42   48 1   
    47   42   49 1   
    48   43   44 1   
    49   43   45 1   
    50   50   51 1   
    51   50   54 1   
    52   51   52 1   
    53   51   55 1   
    54   51   56 1   
    55   52   53 2   
    56   52   57 1   
    57   57   58 1   
    58   57   65 1   
    59   58   59 1   
    60   58   61 1   
    61   58   66 1   
    62   59   60 2   
    63   59   69 1   
    64   61   62 1   
    65   61   67 1   
    66   61   68 1   
    67   62   63 1   
    68   62   64 1   
    69   69   70 1   
    70   69   73 1   
    71   70   71 1   
    72   70   74 1   
    73   70   75 1   
    74   71   72 2   
    75   71   76 1   
    76   76   77 1   
    77   76   85 1   
    78   77   78 1   
    79   77   80 1   
    80   77   86 1   
    81   78   79 2   
    82   78   93 1   
    83   80   81 1   
    84   80   87 1   
    85   80   88 1   
    86   81   82 1   
    87   81   89 1   
    88   81   90 1   
    89   82   83 1   
    90   82   84 2   
    91   83   91 1   
    92   83   92 1   
    93   93   94 1   
    94   93  100 1   
    95   94   95 1   
    96   94   97 1   
    97   94  101 1   
    98   95   96 2   
    99   95  109 1   
   100   97   98 1   
   101   97   99 1   
   102   97  102 1   
   103   98  103 1   
   104   98  104 1   
   105   98  105 1   
   106   99  106 1   
   107   99  107 1   
   108   99  108 1   
   109  109  110 1   
   110  109  117 1   
   111  110  111 1   
   112  110  113 1   
   113  110  118 1   
   114  111  112 2   
   115  111  123 1   
   116  113  114 1   
   117  113  119 1   
   118  113  120 1   
   119  114  115 1   
   120  114  116 2   
   121  115  121 1   
   122  115  122 1   
   123  123  124 1   
   124  123  135 1   
   125  124  125 1   
   126  124  127 1   
   127  124  136 1   
   128  125  126 2   
   129  125  144 1   
   130  127  128 1   
   131  127  137 1   
   132  127  138 1   
   133  128  129 ar  
   134  128  130 ar  
   135  129  131 ar  
   136  129  139 1   
   137  130  132 ar  
   138  130  140 1   
   139  131  133 ar  
   140  131  141 1   
   141  132  133 ar  
   142  132  142 1   
   143  133  134 1   
   144  134  143 1   
   145  144  145 1   
   146  144  153 1   
   147  145  146 1   
   148  145  148 1   
   149  145  154 1   
   150  146  147 2   
   151  146  159 1   
   152  148  149 1   
   153  148  155 1   
   154  148  156 1   
   155  149  150 1   
   156  149  157 1   
   157  149  158 1   
   158  150  151 1   
   159  150  152 1   
   160  159  160 1   
   161  159  168 1   
   162  160  161 1   
   163  160  163 1   
   164  160  169 1   
   165  161  162 2   
   166  161  174 1   
   167  163  164 1   
   168  163  170 1   
   169  163  171 1   
   170  164  165 1   
   171  164  172 1   
   172  164  173 1   
   173  165  166 1   
   174  165  167 1   
   175  174  175 1   
   176  174  179 1   
   177  175  176 1   
   178  175  177 1   
   179  175  178 1   
   180  181  182 1   
   181  181  183 1   
@<TRIPOS>SUBSTRUCTURE
     1 MOL         1 TEMP              0 ****  ****    0 ROOT
