@<TRIPOS>MOLECULE
MOL
  176   174     1     0     0
SMALL
resp


@<TRIPOS>ATOM
      1 C1          0.8900    3.3730    6.2230 c3        1 MOL     -0.267415
      2 C2          0.7040    2.8360    4.7490 c         1 MOL      0.632033
      3 O1          1.7420    2.4990    4.0290 o         1 MOL     -0.603607
      4 H1          0.8060    2.5430    6.9260 hc        1 MOL      0.076187
      5 H2          1.8730    3.8340    6.3210 hc        1 MOL      0.076187
      6 H3          0.1180    4.1120    6.4410 hc        1 MOL      0.076187
      7 N1         -0.5370    2.6350    4.3110 n         1 MOL     -0.515609
      8 C3         -1.0200    2.2870    2.9750 c3        1 MOL     -0.040262
      9 C4         -1.1500    3.5680    2.1360 c         1 MOL      0.769213
     10 O2         -1.8470    4.4830    2.5650 o         1 MOL     -0.596010
     11 C5         -2.2690    1.5140    3.0770 c3        1 MOL     -0.048943
     12 C6         -2.9260    0.9170    1.8340 c         1 MOL      0.911866
     13 O3         -2.4500    1.0610    0.6900 o         1 MOL     -0.831372
     14 O4         -3.9640    0.2960    2.0090 o         1 MOL     -0.831372
     15 H4         -1.1930    2.7290    5.0770 hn        1 MOL      0.305294
     16 H5         -0.3210    1.5920    2.4970 h1        1 MOL      0.024087
     17 H6         -3.1070    2.0960    3.4800 hc        1 MOL      0.010719
     18 H7         -2.1040    0.6670    3.7410 hc        1 MOL      0.010719
     19 N2         -0.4510    3.7260    1.0160 n         1 MOL     -0.482695
     20 C7         -0.4190    4.9870    0.2150 c3        1 MOL     -0.200294
     21 C8         -1.7090    5.2650   -0.6340 c         1 MOL      0.569277
     22 O5         -2.0240    6.3520   -0.9190 o         1 MOL     -0.559402
     23 C9          0.8950    4.9610   -0.6640 c3        1 MOL      0.163090
     24 C10         1.2720    6.3890   -1.2620 c3        1 MOL     -0.344341
     25 C11         2.6020    6.3310   -1.9370 c3        1 MOL      0.039759
     26 C12         2.9400    7.6690   -2.4530 c3        1 MOL      0.153192
     27 N3          4.1470    7.5460   -3.2530 n4        1 MOL     -0.419014
     28 H8         -0.1320    2.8700    0.5660 hn        1 MOL      0.245431
     29 H9         -0.2390    5.8180    0.8980 h1        1 MOL      0.142745
     30 H10         0.7840    4.2280   -1.4640 hc        1 MOL      0.054743
     31 H11         1.7160    4.6030   -0.0290 hc        1 MOL      0.054743
     32 H12         1.2980    7.1070   -0.4390 hc        1 MOL      0.103477
     33 H13         0.5260    6.6560   -2.0200 hc        1 MOL      0.103477
     34 H14         2.6230    5.5430   -2.6790 hc        1 MOL      0.024010
     35 H15         3.3480    5.9990   -1.2300 hc        1 MOL      0.024010
     36 H16         3.0900    8.4690   -1.7280 hx        1 MOL      0.063641
     37 H17         2.1390    8.0200   -3.0950 hx        1 MOL      0.063641
     38 H18         4.9830    7.3770   -2.7000 hn        1 MOL      0.335059
     39 H19         4.1270    6.8040   -3.9350 hn        1 MOL      0.335059
     40 H20         4.1650    8.3500   -3.8590 hn        1 MOL      0.335059
     41 N4         -2.3770    4.1780   -1.0160 n         1 MOL     -0.353885
     42 C13        -3.6240    4.1990   -1.7820 c3        1 MOL      0.140158
     43 C14        -4.8600    3.6200   -1.0010 c         1 MOL      0.337615
     44 O6         -5.9540    3.6450   -1.5730 o         1 MOL     -0.506635
     45 C15        -3.4530    3.4620   -3.1160 c3        1 MOL     -0.347830
     46 C16        -3.0050    2.0350   -2.8870 c         1 MOL      0.854059
     47 O7         -3.7420    1.2100   -2.3070 o         1 MOL     -0.818568
     48 O8         -1.7940    1.7330   -3.0970 o         1 MOL     -0.818568
     49 H21        -1.9820    3.3250   -0.6390 hn        1 MOL      0.218570
     50 H22        -3.8920    5.2390   -1.9940 h1        1 MOL      0.099182
     51 H23        -2.8270    3.9970   -3.8230 hc        1 MOL      0.088686
     52 H24        -4.4560    3.4360   -3.5340 hc        1 MOL      0.088686
     53 N5         -4.6820    3.1960    0.2540 n         1 MOL     -0.082567
     54 C17        -5.6950    2.8810    1.2200 c3        1 MOL     -0.297469
     55 C18        -6.5090    1.6210    0.7950 c         1 MOL      0.601279
     56 O9         -7.5010    1.3380    1.4400 o         1 MOL     -0.599552
     57 H25        -3.7780    3.1610    0.7280 hn        1 MOL      0.127833
     58 H26        -6.4380    3.6700    1.3130 h1        1 MOL      0.137999
     59 H27        -5.2220    2.6470    2.1790 h1        1 MOL      0.137999
     60 N6         -6.0700    0.7820   -0.1340 n         1 MOL     -0.383737
     61 C19        -6.6910   -0.4480   -0.6010 c3        1 MOL     -0.000338
     62 C20        -6.6900   -1.6090    0.3760 c         1 MOL      0.395162
     63 O10        -7.2670   -2.6810    0.1060 o         1 MOL     -0.538108
     64 C21        -6.3140   -0.7560   -2.0070 c3        1 MOL     -0.282425
     65 C22        -4.9740   -1.5350   -2.0990 c         1 MOL      0.764480
     66 N7         -4.7770   -2.2250   -3.2050 n         1 MOL     -0.708807
     67 O11        -4.0580   -1.5090   -1.2340 o         1 MOL     -0.597443
     68 H28        -5.1480    0.9850   -0.4960 hn        1 MOL      0.352741
     69 H29        -7.7510   -0.2660   -0.7110 h1        1 MOL      0.124306
     70 H30        -6.2290    0.1170   -2.6510 hc        1 MOL      0.101332
     71 H31        -7.0640   -1.3780   -2.4880 hc        1 MOL      0.101332
     72 H32        -5.5190   -2.3300   -3.8850 hn        1 MOL      0.331186
     73 H33        -3.9250   -2.7670   -3.2200 hn        1 MOL      0.331186
     74 N8         -5.9770   -1.4350    1.5340 n         1 MOL     -0.212270
     75 C23        -5.9220   -2.4910    2.5370 c3        1 MOL     -0.160000
     76 C24        -4.6900   -3.4210    2.4320 c         1 MOL      0.476041
     77 O12        -4.7820   -4.4950    3.0440 o         1 MOL     -0.568432
     78 H34        -5.5000   -0.5550    1.6640 hn        1 MOL      0.324480
     79 H35        -6.8410   -3.0710    2.5130 h1        1 MOL      0.110616
     80 H36        -5.9630   -1.9870    3.5000 h1        1 MOL      0.110616
     81 N9         -3.5690   -3.1330    1.8220 n         1 MOL     -0.154230
     82 C25        -2.3010   -3.8730    1.8350 c3        1 MOL     -0.169090
     83 C26        -1.1710   -2.9520    1.4350 c         1 MOL      0.614680
     84 O13        -1.2900   -2.1510    0.5050 o         1 MOL     -0.690324
     85 C27        -2.2620   -5.1310    0.8910 c3        1 MOL      0.007012
     86 C28        -2.5400   -4.9300   -0.6120 ca        1 MOL      0.192219
     87 C29        -3.8450   -4.8740   -1.1370 ca        1 MOL     -0.323266
     88 C30        -1.4860   -4.8030   -1.5060 ca        1 MOL     -0.323266
     89 C31        -4.1010   -4.9640   -2.5150 ca        1 MOL     -0.165381
     90 C32        -1.7030   -4.7770   -2.8800 ca        1 MOL     -0.165381
     91 C33        -3.0000   -4.9560   -3.4080 ca        1 MOL      0.228365
     92 O14        -3.2260   -5.0200   -4.7560 oh        1 MOL     -0.450039
     93 H37        -3.4770   -2.2600    1.3130 hn        1 MOL      0.185930
     94 H38        -2.1550   -4.3510    2.7980 h1        1 MOL      0.101731
     95 H39        -2.9010   -5.9450    1.2450 hc        1 MOL      0.043995
     96 H40        -1.2780   -5.6020    0.9530 hc        1 MOL      0.043995
     97 H41        -4.7690   -4.9470   -0.5700 ha        1 MOL      0.210777
     98 H42        -0.4780   -4.7490   -1.1230 ha        1 MOL      0.210777
     99 H43        -5.0670   -5.1420   -2.9600 ha        1 MOL      0.124872
    100 H44        -0.9400   -4.6970   -3.6300 ha        1 MOL      0.124872
    101 H45        -2.3690   -5.0560   -5.1660 ho        1 MOL      0.321615
    102 N10        -0.0700   -3.1340    2.1080 n         1 MOL     -0.446847
    103 C34         1.2120   -2.5180    1.8040 c3        1 MOL      0.189203
    104 C35         2.0310   -3.4270    0.8430 c         1 MOL      0.352715
    105 O15         1.9870   -4.6690    0.9970 o         1 MOL     -0.520833
    106 C36         2.0430   -1.9320    2.9330 c3        1 MOL      0.073446
    107 C37         2.5270   -2.9680    3.9990 c3        1 MOL     -0.144451
    108 C38         1.2870   -0.8240    3.6370 c3        1 MOL     -0.787165
    109 C39         3.8840   -2.5780    4.7030 c3        1 MOL     -0.040846
    110 H46        -0.1060   -3.8880    2.7690 hn        1 MOL      0.291764
    111 H47         1.0590   -1.6730    1.1310 h1        1 MOL      0.089295
    112 H48         2.8920   -1.3740    2.5490 hc        1 MOL      0.069996
    113 H49         2.6370   -3.9200    3.4750 hc        1 MOL      0.051342
    114 H50         1.6810   -3.1610    4.6650 hc        1 MOL      0.051342
    115 H51         1.1290   -0.0660    2.8690 hc        1 MOL      0.239244
    116 H52         0.3540   -1.2600    3.9730 hc        1 MOL      0.239244
    117 H53         1.9980   -0.4690    4.3900 hc        1 MOL      0.239244
    118 H54         4.2690   -3.4680    5.2070 hc        1 MOL      0.017146
    119 H55         4.5550   -2.1820    3.9430 hc        1 MOL      0.017146
    120 H56         3.7690   -1.7980    5.4580 hc        1 MOL      0.017146
    121 N11         2.6820   -2.8860   -0.2280 n         1 MOL     -0.331488
    122 C40         3.7690   -3.6000   -0.9760 c3        1 MOL      0.026254
    123 C41         5.1000   -3.3430   -0.1730 c         1 MOL      0.580540
    124 O16         5.1440   -2.6080    0.8310 o         1 MOL     -0.461833
    125 C42         3.8850   -3.0730   -2.3860 c3        1 MOL     -0.025888
    126 O17         4.0230   -1.6960   -2.3790 oh        1 MOL     -0.377433
    127 H57         2.5510   -1.9300   -0.5100 hn        1 MOL      0.252855
    128 H58         3.6390   -4.6710   -1.1310 h1        1 MOL      0.078053
    129 H59         3.0050   -3.4070   -2.9310 h1        1 MOL      0.043077
    130 H60         4.7850   -3.4610   -2.8730 h1        1 MOL      0.043077
    131 H61         3.7110   -1.3640   -3.2310 ho        1 MOL      0.366021
    132 N12         6.2310   -3.8400   -0.6940 n         1 MOL     -0.602987
    133 C43         7.5810   -3.3310   -0.4050 c3        1 MOL      0.232910
    134 C44         7.6890   -1.8640   -0.7390 c         1 MOL      0.420082
    135 O18         8.3580   -1.1280   -0.0800 o         1 MOL     -0.487728
    136 C45         8.6770   -4.1010   -1.1690 c3        1 MOL     -0.234869
    137 H62         6.1320   -4.4440   -1.5030 hn        1 MOL      0.303777
    138 H63         7.8260   -3.4290    0.6550 h1        1 MOL      0.066693
    139 H64         9.6360   -3.8420   -0.7240 hc        1 MOL      0.076770
    140 H65         8.6310   -5.1870   -1.0640 hc        1 MOL      0.076770
    141 H66         8.6890   -3.8950   -2.2360 hc        1 MOL      0.076770
    142 N13         7.0750   -1.3640   -1.8380 n         1 MOL     -0.418752
    143 C46         7.2620    0.0450   -2.3000 c3        1 MOL      0.202737
    144 C47         6.5630    1.0960   -1.4490 c         1 MOL      0.240492
    145 O19         7.1320    2.2260   -1.2750 o         1 MOL     -0.513703
    146 C48         6.7370    0.1530   -3.7290 c3        1 MOL     -0.402726
    147 H67         6.4770   -1.9400   -2.4080 hn        1 MOL      0.260605
    148 H68         8.3020    0.3340   -2.2360 h1        1 MOL      0.094486
    149 H69         6.7950    1.2250   -3.8860 hc        1 MOL      0.106716
    150 H70         7.4170   -0.3430   -4.4170 hc        1 MOL      0.106716
    151 H71         5.7010   -0.1570   -3.8060 hc        1 MOL      0.106716
    152 N14         5.4120    0.8000   -0.8980 n         1 MOL     -0.006542
    153 C49         4.8080    1.5760    0.1660 c3        1 MOL     -0.173943
    154 C50         5.5680    1.5210    1.4730 c         1 MOL      0.504123
    155 O20         5.5020    2.4950    2.2560 o         1 MOL     -0.533747
    156 C51         3.3670    1.0950    0.4500 c3        1 MOL      0.087154
    157 C52         2.5900    1.3950   -0.8330 c3        1 MOL      0.138630
    158 C53         1.2850    0.6570   -0.6860 c         1 MOL      0.547934
    159 O21         0.2440    1.3590   -0.3530 o         1 MOL     -0.711590
    160 O22         1.1110   -0.5480   -1.0440 o         1 MOL     -0.711590
    161 H72         4.9160   -0.0610   -1.0790 hn        1 MOL      0.041974
    162 H73         4.7920    2.6130   -0.1430 h1        1 MOL      0.082926
    163 H74         3.0050    1.7050    1.2770 hc        1 MOL      0.042247
    164 H75         3.2240    0.0320    0.6230 hc        1 MOL      0.042247
    165 H76         3.0310    1.1100   -1.7810 hc        1 MOL     -0.070263
    166 H77         2.4540    2.4720   -0.9120 hc        1 MOL     -0.070263
    167 N15         6.3210    0.4010    1.6510 n         1 MOL     -0.148857
    168 C54         7.1830    0.2960    2.8460 c3        1 MOL     -0.256129
    169 H78         6.6900   -0.3240    3.5960 h1        1 MOL      0.107398
    170 H79         8.1350   -0.1570    2.5690 h1        1 MOL      0.107398
    171 H80         7.3590    1.2910    3.2550 h1        1 MOL      0.107398
    172 H81         6.1780   -0.3970    1.0510 hn        1 MOL      0.179071
    173 Ca1        -1.6870   -0.1900   -1.3890 Ca        1 MOL      1.838199
    174 O23        -1.8620   -1.3610   -3.6870 oh        1 MOL     -0.918767
    175 H82        -2.5090   -1.3030   -4.3860 ho        1 MOL      0.430405
    176 H83        -1.0810   -1.7270   -4.1100 ho        1 MOL      0.430405
@<TRIPOS>BOND
     1    1    2 1   
     2    1    4 1   
     3    1    5 1   
     4    1    6 1   
     5    2    3 2   
     6    2    7 1   
     7    7    8 1   
     8    7   15 1   
     9    8    9 1   
    10    8   11 1   
    11    8   16 1   
    12    9   10 2   
    13    9   19 1   
    14   11   12 1   
    15   11   17 1   
    16   11   18 1   
    17   12   13 1   
    18   12   14 1   
    19   19   20 1   
    20   19   28 1   
    21   20   21 1   
    22   20   23 1   
    23   20   29 1   
    24   21   22 2   
    25   21   41 1   
    26   23   24 1   
    27   23   30 1   
    28   23   31 1   
    29   24   25 1   
    30   24   32 1   
    31   24   33 1   
    32   25   26 1   
    33   25   34 1   
    34   25   35 1   
    35   26   27 1   
    36   26   36 1   
    37   26   37 1   
    38   27   38 1   
    39   27   39 1   
    40   27   40 1   
    41   41   42 1   
    42   41   49 1   
    43   42   43 1   
    44   42   45 1   
    45   42   50 1   
    46   43   44 2   
    47   43   53 1   
    48   45   46 1   
    49   45   51 1   
    50   45   52 1   
    51   46   47 1   
    52   46   48 1   
    53   53   54 1   
    54   53   57 1   
    55   54   55 1   
    56   54   58 1   
    57   54   59 1   
    58   55   56 2   
    59   55   60 1   
    60   60   61 1   
    61   60   68 1   
    62   61   62 1   
    63   61   64 1   
    64   61   69 1   
    65   62   63 2   
    66   62   74 1   
    67   64   65 1   
    68   64   70 1   
    69   64   71 1   
    70   65   66 1   
    71   65   67 2   
    72   66   72 1   
    73   66   73 1   
    74   74   75 1   
    75   74   78 1   
    76   75   76 1   
    77   75   79 1   
    78   75   80 1   
    79   76   77 2   
    80   76   81 1   
    81   81   82 1   
    82   81   93 1   
    83   82   83 1   
    84   82   85 1   
    85   82   94 1   
    86   83   84 2   
    87   83  102 1   
    88   85   86 1   
    89   85   95 1   
    90   85   96 1   
    91   86   87 ar  
    92   86   88 ar  
    93   87   89 ar  
    94   87   97 1   
    95   88   90 ar  
    96   88   98 1   
    97   89   91 ar  
    98   89   99 1   
    99   90   91 ar  
   100   90  100 1   
   101   91   92 1   
   102   92  101 1   
   103  102  103 1   
   104  102  110 1   
   105  103  104 1   
   106  103  106 1   
   107  103  111 1   
   108  104  105 2   
   109  104  121 1   
   110  106  107 1   
   111  106  108 1   
   112  106  112 1   
   113  107  109 1   
   114  107  113 1   
   115  107  114 1   
   116  108  115 1   
   117  108  116 1   
   118  108  117 1   
   119  109  118 1   
   120  109  119 1   
   121  109  120 1   
   122  121  122 1   
   123  121  127 1   
   124  122  123 1   
   125  122  125 1   
   126  122  128 1   
   127  123  124 2   
   128  123  132 1   
   129  125  126 1   
   130  125  129 1   
   131  125  130 1   
   132  126  131 1   
   133  132  133 1   
   134  132  137 1   
   135  133  134 1   
   136  133  136 1   
   137  133  138 1   
   138  134  135 2   
   139  134  142 1   
   140  136  139 1   
   141  136  140 1   
   142  136  141 1   
   143  142  143 1   
   144  142  147 1   
   145  143  144 1   
   146  143  146 1   
   147  143  148 1   
   148  144  145 2   
   149  144  152 1   
   150  146  149 1   
   151  146  150 1   
   152  146  151 1   
   153  152  153 1   
   154  152  161 1   
   155  153  154 1   
   156  153  156 1   
   157  153  162 1   
   158  154  155 2   
   159  154  167 1   
   160  156  157 1   
   161  156  163 1   
   162  156  164 1   
   163  157  158 1   
   164  157  165 1   
   165  157  166 1   
   166  158  159 1   
   167  158  160 1   
   168  167  168 1   
   169  167  172 1   
   170  168  169 1   
   171  168  170 1   
   172  168  171 1   
   173  174  175 1   
   174  174  176 1   
@<TRIPOS>SUBSTRUCTURE
     1 MOL         1 TEMP              0 ****  ****    0 ROOT
