@<TRIPOS>MOLECULE
MOL
  179   176     1     0     0
SMALL
resp


@<TRIPOS>ATOM
      1 C1         -0.8680   -3.2960    6.9470 c3        1 MOL     -0.250377
      2 C2         -0.9220   -2.7520    5.4940 c         1 MOL      0.675523
      3 O1         -2.0760   -2.4980    5.0430 o         1 MOL     -0.548086
      4 H1         -0.5750   -2.4940    7.6240 hc        1 MOL      0.064379
      5 H2         -1.8500   -3.6710    7.2320 hc        1 MOL      0.064379
      6 H3         -0.1390   -4.1050    7.0050 hc        1 MOL      0.064379
      7 N1          0.2080   -2.5470    4.7930 n         1 MOL     -0.579136
      8 C3          0.1830   -2.3730    3.2940 c3        1 MOL     -0.042978
      9 C4         -0.4060   -3.6090    2.5680 c         1 MOL      0.678762
     10 O2         -0.0830   -4.7600    2.9030 o         1 MOL     -0.523048
     11 C5          1.6560   -2.0550    2.8870 c3        1 MOL     -0.228680
     12 C6          1.8010   -1.5400    1.4300 c         1 MOL      0.666033
     13 O3          2.8300   -0.9150    1.1060 o         1 MOL     -0.723400
     14 O4          0.7950   -1.6580    0.6950 o         1 MOL     -0.723400
     15 H4          1.1310   -2.5550    5.2030 hn        1 MOL      0.333074
     16 H5         -0.4940   -1.5430    3.1200 h1        1 MOL      0.053373
     17 H6          2.2290   -2.9540    3.0790 hc        1 MOL      0.074823
     18 H7          1.9440   -1.2430    3.5610 hc        1 MOL      0.074823
     19 N2         -1.1420   -3.3880    1.3890 n         1 MOL     -0.525951
     20 C7         -1.7810   -4.4960    0.6800 c3        1 MOL      0.001094
     21 C8         -0.7390   -5.3890    0.0050 c         1 MOL      0.450462
     22 O5         -0.9390   -6.5690   -0.0680 o         1 MOL     -0.563771
     23 C9         -2.7820   -3.9470   -0.3300 c3        1 MOL     -0.119978
     24 C10        -3.3390   -4.9530   -1.3480 c3        1 MOL      0.074529
     25 C11        -4.6040   -4.4810   -2.0220 c3        1 MOL     -0.043776
     26 C12        -5.3120   -5.5820   -2.7850 c3        1 MOL     -0.234555
     27 N3         -4.7000   -6.0160   -4.1020 n4        1 MOL     -0.195906
     28 H8         -1.1540   -2.4600    0.9940 hn        1 MOL      0.320526
     29 H9         -2.3250   -5.1170    1.3880 h1        1 MOL      0.109631
     30 H10        -2.5460   -2.9590   -0.7080 hc        1 MOL      0.065822
     31 H11        -3.6910   -3.7470    0.2350 hc        1 MOL      0.065822
     32 H12        -3.4630   -5.8780   -0.7850 hc        1 MOL      0.007234
     33 H13        -2.5590   -5.1240   -2.0790 hc        1 MOL      0.007234
     34 H14        -4.4240   -3.6310   -2.6730 hc        1 MOL      0.081047
     35 H15        -5.2390   -4.1640   -1.1990 hc        1 MOL      0.081047
     36 H16        -6.2480   -5.0970   -3.0430 hx        1 MOL      0.158801
     37 H17        -5.4150   -6.4120   -2.0770 hx        1 MOL      0.158801
     38 H18        -5.2600   -6.6570   -4.6400 hn        1 MOL      0.292177
     39 H19        -4.5000   -5.2660   -4.7500 hn        1 MOL      0.292177
     40 H20        -3.8420   -6.5250   -3.9630 hn        1 MOL      0.292177
     41 N4          0.4160   -4.8270   -0.4220 n         1 MOL     -0.247594
     42 C13         1.4570   -5.5680   -1.1840 c3        1 MOL      0.079162
     43 C14         2.8400   -5.5120   -0.4350 c         1 MOL      0.395458
     44 O6          3.7630   -6.1770   -0.9780 o         1 MOL     -0.502472
     45 C15         1.6030   -5.0230   -2.5350 c3        1 MOL     -0.319891
     46 C16         1.8920   -3.4470   -2.7260 c         1 MOL      0.762963
     47 O7          1.7970   -3.0250   -3.9250 o         1 MOL     -0.744121
     48 O8          1.9580   -2.6650   -1.8190 o         1 MOL     -0.744121
     49 H21         0.4840   -3.8220   -0.5120 hn        1 MOL      0.275361
     50 H22         1.3390   -6.6440   -1.2640 h1        1 MOL      0.094453
     51 H23         0.7670   -5.2410   -3.1980 hc        1 MOL      0.083575
     52 H24         2.3870   -5.6060   -3.0130 hc        1 MOL      0.083575
     53 N5          2.9520   -4.6890    0.6930 n         1 MOL     -0.236039
     54 C17         4.1820   -4.6140    1.4090 c3        1 MOL     -0.035889
     55 C18         5.3090   -3.7440    0.9830 c         1 MOL      0.365235
     56 O9          6.4700   -3.8380    1.4170 o         1 MOL     -0.532404
     57 H25         2.1120   -4.3300    1.1100 hn        1 MOL      0.167090
     58 H26         4.5330   -5.6120    1.6430 h1        1 MOL      0.079541
     59 H27         3.8820   -4.2980    2.4020 h1        1 MOL      0.079541
     60 N6          5.0130   -2.9580   -0.0580 n         1 MOL     -0.219726
     61 C19         6.0300   -2.2820   -0.9230 c3        1 MOL     -0.088915
     62 C20         6.5050   -0.8500   -0.5130 c         1 MOL      0.405143
     63 O10         7.4290   -0.3420   -1.0960 o         1 MOL     -0.549317
     64 C21         5.4190   -2.3430   -2.3250 c3        1 MOL     -0.119277
     65 C22         4.7360   -1.1230   -2.7490 c         1 MOL      0.764279
     66 N7          4.9530   -0.7150   -3.9630 n         1 MOL     -0.802818
     67 O11         4.0210   -0.5480   -1.9620 o         1 MOL     -0.667844
     68 H28         4.0850   -3.0610   -0.4300 hn        1 MOL      0.332753
     69 H29         6.9870   -2.7820   -0.8570 h1        1 MOL      0.142834
     70 H30         4.7950   -3.2200   -2.4500 hc        1 MOL      0.043675
     71 H31         6.2660   -2.4610   -3.0040 hc        1 MOL      0.043675
     72 H32         5.7040   -1.1090   -4.5120 hn        1 MOL      0.370400
     73 H33         4.7260    0.2310   -4.2240 hn        1 MOL      0.370400
     74 N8          5.9380   -0.2850    0.5220 n         1 MOL     -0.037953
     75 C23         6.4740    0.8720    1.2040 c3        1 MOL     -0.248881
     76 C24         5.7050    2.1990    1.1920 c         1 MOL      0.516475
     77 O12         6.0960    3.0780    2.0220 o         1 MOL     -0.527300
     78 H34         5.2260   -0.8250    0.9890 hn        1 MOL      0.184598
     79 H35         7.3720    1.2420    0.7050 h1        1 MOL      0.126301
     80 H36         6.8050    0.6140    2.2020 h1        1 MOL      0.126301
     81 N9          4.6080    2.3520    0.3720 n         1 MOL     -0.344663
     82 C25         3.6340    3.4160    0.7200 c3        1 MOL      0.263162
     83 C26         2.2200    2.7310    0.7960 c         1 MOL      0.525694
     84 O13         1.9310    1.7320    0.0560 o         1 MOL     -0.506966
     85 C27         3.6080    4.5850   -0.2010 c3        1 MOL     -0.113046
     86 C28         4.8960    5.3430   -0.4510 ca        1 MOL      0.032623
     87 C29         5.6470    5.2370   -1.6160 ca        1 MOL     -0.184623
     88 C30         5.2430    6.2580    0.5580 ca        1 MOL     -0.184623
     89 C31         6.7510    6.1360   -1.7260 ca        1 MOL     -0.169324
     90 C32         6.3970    7.0300    0.4140 ca        1 MOL     -0.169324
     91 C33         7.1100    6.9830   -0.7340 ca        1 MOL      0.296080
     92 O14         8.3020    7.6810   -0.7820 oh        1 MOL     -0.527712
     93 H37         4.2610    1.6230   -0.2350 hn        1 MOL      0.164975
     94 H38         3.9440    3.8090    1.6860 h1        1 MOL      0.001039
     95 H39         2.7490    5.2090    0.0460 hc        1 MOL      0.045265
     96 H40         3.4070    4.0970   -1.1550 hc        1 MOL      0.045265
     97 H41         5.3580    4.5250   -2.3810 ha        1 MOL      0.138861
     98 H42         4.6080    6.3690    1.4170 ha        1 MOL      0.138861
     99 H43         7.4220    6.2130   -2.5730 ha        1 MOL      0.119066
    100 H44         6.6510    7.7120    1.2060 ha        1 MOL      0.119066
    101 H45         8.5970    7.8550    0.1100 ho        1 MOL      0.381336
    102 N10         1.2670    3.4180    1.5840 n         1 MOL     -0.756630
    103 C34        -0.1650    2.9980    1.5880 c3        1 MOL      0.221170
    104 C35        -0.9640    4.1410    0.8970 c         1 MOL      0.600446
    105 O15        -0.7610    5.3000    1.1710 o         1 MOL     -0.582624
    106 C36        -0.7490    2.6580    2.9910 c3        1 MOL     -0.057668
    107 C37        -0.1950    1.2870    3.3280 c3        1 MOL      0.216255
    108 C38        -2.2680    2.6270    2.9980 c3        1 MOL     -0.135348
    109 C39        -0.3580    0.8320    4.7150 c3        1 MOL     -0.530457
    110 H46         1.5780    4.2360    2.0770 hn        1 MOL      0.388904
    111 H47        -0.3540    2.1030    1.0080 h1        1 MOL     -0.096635
    112 H48        -0.4150    3.3890    3.7260 hc        1 MOL      0.052282
    113 H49         0.8730    1.2850    3.1470 hc        1 MOL      0.039377
    114 H50        -0.4940    0.4850    2.6380 hc        1 MOL      0.039377
    115 H51        -2.8170    1.9380    2.3570 hc        1 MOL      0.022056
    116 H52        -2.5770    2.4520    4.0250 hc        1 MOL      0.022056
    117 H53        -2.6580    3.5960    2.6760 hc        1 MOL      0.022056
    118 H54        -0.1630    1.6850    5.3610 hc        1 MOL      0.130864
    119 H55        -1.3760    0.4640    4.8610 hc        1 MOL      0.130864
    120 H56         0.3250    0.0070    4.8960 hc        1 MOL      0.130864
    121 N11        -1.9110    3.7040    0.1070 n         1 MOL     -0.243631
    122 C40        -2.8250    4.5470   -0.5840 c3        1 MOL     -0.035997
    123 C41        -4.2830    4.1150   -0.2900 c         1 MOL      0.471128
    124 O16        -4.4590    3.0580    0.2590 o         1 MOL     -0.379663
    125 C42        -2.6170    4.4360   -2.1260 c3        1 MOL      0.043637
    126 O17        -2.9610    3.1540   -2.6690 oh        1 MOL     -0.534719
    127 H57        -1.9780    2.7230   -0.0790 hn        1 MOL      0.222323
    128 H58        -2.6920    5.6110   -0.3720 h1        1 MOL      0.062848
    129 H59        -1.5850    4.6950   -2.3380 h1        1 MOL      0.053596
    130 H60        -3.3270    5.1510   -2.5510 h1        1 MOL      0.053596
    131 H61        -2.2600    2.5660   -2.3670 ho        1 MOL      0.369540
    132 N12        -5.2630    4.9650   -0.5840 n         1 MOL     -0.429671
    133 C43        -6.6710    4.8350   -0.1600 c3        1 MOL      0.047309
    134 C44        -7.3850    3.5070   -0.4240 c         1 MOL      0.569689
    135 O18        -7.9720    3.0350    0.5290 o         1 MOL     -0.519856
    136 C45        -7.4000    6.0530   -0.7030 c3        1 MOL     -0.370021
    137 H62        -4.9750    5.8720   -0.9410 hn        1 MOL      0.293264
    138 H63        -6.6300    4.8590    0.9240 h1        1 MOL      0.097538
    139 H64        -6.7670    6.9270   -0.5680 hc        1 MOL      0.115457
    140 H65        -7.6850    6.0390   -1.7520 hc        1 MOL      0.115457
    141 H66        -8.3140    6.2170   -0.1350 hc        1 MOL      0.115457
    142 N13        -7.0770    2.8570   -1.6100 n         1 MOL     -0.561918
    143 C46        -7.7360    1.5680   -1.8970 c3        1 MOL      0.281968
    144 C47        -6.9400    0.4400   -1.1990 c         1 MOL      0.222410
    145 O19        -7.5340   -0.5960   -1.0060 o         1 MOL     -0.527602
    146 C48        -7.7680    1.3480   -3.3840 c3        1 MOL     -0.261144
    147 H67        -6.6460    3.3790   -2.3670 hn        1 MOL      0.321264
    148 H68        -8.7940    1.6430   -1.6410 h1        1 MOL      0.078234
    149 H69        -6.7520    1.5180   -3.7520 hc        1 MOL      0.072066
    150 H70        -8.1100    0.3260   -3.5430 hc        1 MOL      0.072066
    151 H71        -8.4690    2.0280   -3.8700 hc        1 MOL      0.072066
    152 N14        -5.7160    0.5450   -0.6890 n         1 MOL     -0.014916
    153 C49        -5.0370   -0.4440    0.1520 c3        1 MOL     -0.013516
    154 C50        -5.4550   -0.2980    1.6360 c         1 MOL      0.410340
    155 O20        -5.3380   -1.2490    2.4350 o         1 MOL     -0.514740
    156 C51        -3.5540   -0.1960   -0.0170 c3        1 MOL      0.095426
    157 C52        -3.0970   -0.3240   -1.4900 c3        1 MOL     -0.210468
    158 C53        -1.6270   -0.2350   -1.6180 c         1 MOL      0.716761
    159 O21        -0.9140   -1.2760   -1.8430 o         1 MOL     -0.698214
    160 O22        -1.0970    0.8650   -1.2820 o         1 MOL     -0.698214
    161 H72        -5.2570    1.4320   -0.8640 hn        1 MOL      0.110776
    162 H73        -5.1440   -1.4990   -0.0950 h1        1 MOL      0.039015
    163 H74        -3.0520   -0.9080    0.6320 hc        1 MOL      0.005272
    164 H75        -3.3880    0.8390    0.3070 hc        1 MOL      0.005272
    165 H76        -3.4340    0.5720   -2.0170 hc        1 MOL     -0.005177
    166 H77        -3.5930   -1.2100   -1.8870 hc        1 MOL     -0.005177
    167 N15        -5.8840    0.9250    2.0010 n         1 MOL     -0.075759
    168 C54        -6.4960    1.1240    3.3290 c3        1 MOL     -0.256802
    169 H78        -6.1280    2.0550    3.7620 h1        1 MOL      0.108010
    170 H79        -7.5800    1.1740    3.2270 h1        1 MOL      0.108010
    171 H80        -6.2310    0.2920    3.9810 h1        1 MOL      0.108010
    172 H81        -5.8240    1.6760    1.3240 hn        1 MOL      0.129856
    173 Ca1         1.4460   -0.2810   -1.4340 Ca        1 MOL      1.774466
    174 O23         1.3130    1.9190   -3.0490 oh        1 MOL     -0.899548
    175 H82         0.8410    1.5750   -3.7960 ho        1 MOL      0.423160
    176 H83         1.6220    2.7850   -3.3230 ho        1 MOL      0.423160
    177 O24         0.7490   -0.6320   -4.0370 oh        1 MOL     -0.899548
    178 H84         1.3610   -1.3410   -4.2440 ho        1 MOL      0.423160
    179 H85        -0.0480   -0.8710   -4.5170 ho        1 MOL      0.423160
@<TRIPOS>BOND
     1    1    2 1   
     2    1    4 1   
     3    1    5 1   
     4    1    6 1   
     5    2    3 2   
     6    2    7 1   
     7    7    8 1   
     8    7   15 1   
     9    8    9 1   
    10    8   11 1   
    11    8   16 1   
    12    9   10 2   
    13    9   19 1   
    14   11   12 1   
    15   11   17 1   
    16   11   18 1   
    17   12   13 1   
    18   12   14 1   
    19   19   20 1   
    20   19   28 1   
    21   20   21 1   
    22   20   23 1   
    23   20   29 1   
    24   21   22 2   
    25   21   41 1   
    26   23   24 1   
    27   23   30 1   
    28   23   31 1   
    29   24   25 1   
    30   24   32 1   
    31   24   33 1   
    32   25   26 1   
    33   25   34 1   
    34   25   35 1   
    35   26   27 1   
    36   26   36 1   
    37   26   37 1   
    38   27   38 1   
    39   27   39 1   
    40   27   40 1   
    41   41   42 1   
    42   41   49 1   
    43   42   43 1   
    44   42   45 1   
    45   42   50 1   
    46   43   44 2   
    47   43   53 1   
    48   45   46 1   
    49   45   51 1   
    50   45   52 1   
    51   46   47 1   
    52   46   48 1   
    53   53   54 1   
    54   53   57 1   
    55   54   55 1   
    56   54   58 1   
    57   54   59 1   
    58   55   56 2   
    59   55   60 1   
    60   60   61 1   
    61   60   68 1   
    62   61   62 1   
    63   61   64 1   
    64   61   69 1   
    65   62   63 2   
    66   62   74 1   
    67   64   65 1   
    68   64   70 1   
    69   64   71 1   
    70   65   66 1   
    71   65   67 2   
    72   66   72 1   
    73   66   73 1   
    74   74   75 1   
    75   74   78 1   
    76   75   76 1   
    77   75   79 1   
    78   75   80 1   
    79   76   77 2   
    80   76   81 1   
    81   81   82 1   
    82   81   93 1   
    83   82   83 1   
    84   82   85 1   
    85   82   94 1   
    86   83   84 2   
    87   83  102 1   
    88   85   86 1   
    89   85   95 1   
    90   85   96 1   
    91   86   87 ar  
    92   86   88 ar  
    93   87   89 ar  
    94   87   97 1   
    95   88   90 ar  
    96   88   98 1   
    97   89   91 ar  
    98   89   99 1   
    99   90   91 ar  
   100   90  100 1   
   101   91   92 1   
   102   92  101 1   
   103  102  103 1   
   104  102  110 1   
   105  103  104 1   
   106  103  106 1   
   107  103  111 1   
   108  104  105 2   
   109  104  121 1   
   110  106  107 1   
   111  106  108 1   
   112  106  112 1   
   113  107  109 1   
   114  107  113 1   
   115  107  114 1   
   116  108  115 1   
   117  108  116 1   
   118  108  117 1   
   119  109  118 1   
   120  109  119 1   
   121  109  120 1   
   122  121  122 1   
   123  121  127 1   
   124  122  123 1   
   125  122  125 1   
   126  122  128 1   
   127  123  124 2   
   128  123  132 1   
   129  125  126 1   
   130  125  129 1   
   131  125  130 1   
   132  126  131 1   
   133  132  133 1   
   134  132  137 1   
   135  133  134 1   
   136  133  136 1   
   137  133  138 1   
   138  134  135 2   
   139  134  142 1   
   140  136  139 1   
   141  136  140 1   
   142  136  141 1   
   143  142  143 1   
   144  142  147 1   
   145  143  144 1   
   146  143  146 1   
   147  143  148 1   
   148  144  145 2   
   149  144  152 1   
   150  146  149 1   
   151  146  150 1   
   152  146  151 1   
   153  152  153 1   
   154  152  161 1   
   155  153  154 1   
   156  153  156 1   
   157  153  162 1   
   158  154  155 2   
   159  154  167 1   
   160  156  157 1   
   161  156  163 1   
   162  156  164 1   
   163  157  158 1   
   164  157  165 1   
   165  157  166 1   
   166  158  159 1   
   167  158  160 1   
   168  167  168 1   
   169  167  172 1   
   170  168  169 1   
   171  168  170 1   
   172  168  171 1   
   173  174  175 1   
   174  174  176 1   
   175  177  178 1   
   176  177  179 1   
@<TRIPOS>SUBSTRUCTURE
     1 MOL         1 TEMP              0 ****  ****    0 ROOT
