@<TRIPOS>MOLECULE
MOL
  186   183     1     0     0
SMALL
resp


@<TRIPOS>ATOM
      1 C1          1.0070   -2.6990    6.3180 c3        1 MOL     -0.319653
      2 C2          1.1170   -2.6400    4.7270 c         1 MOL      0.772365
      3 O1          0.2610   -3.0520    3.9640 o         1 MOL     -0.606593
      4 H1          1.7890   -2.0810    6.7580 hc        1 MOL      0.067986
      5 H2          0.0300   -2.3270    6.6290 hc        1 MOL      0.067986
      6 H3          1.1270   -3.7290    6.6530 hc        1 MOL      0.067986
      7 N1          2.2770   -2.1480    4.3070 n         1 MOL     -0.678288
      8 C3          2.5910   -1.9390    2.9220 c3        1 MOL     -0.040007
      9 C4          3.1310   -3.2570    2.3460 c         1 MOL      0.758847
     10 O2          4.0450   -3.8560    3.0250 o         1 MOL     -0.599040
     11 C5          3.6920   -0.8520    2.8550 c3        1 MOL     -0.193106
     12 C6          4.1570   -0.6210    1.4270 c         1 MOL      0.943426
     13 O3          5.2270   -0.0770    1.2400 o         1 MOL     -0.755807
     14 O4          3.3610   -0.9330    0.5450 o         1 MOL     -0.755807
     15 H4          2.9350   -1.8640    5.0140 hn        1 MOL      0.366608
     16 H5          1.7510   -1.5640    2.3260 h1        1 MOL      0.074200
     17 H6          4.5940   -1.1530    3.3790 hc        1 MOL      0.031532
     18 H7          3.3460    0.1280    3.1790 hc        1 MOL      0.031532
     19 N2          2.5840   -3.7710    1.2190 n         1 MOL     -0.363740
     20 C7          2.8450   -5.1360    0.7530 c3        1 MOL     -0.224829
     21 C8          3.9500   -5.2550   -0.2720 c         1 MOL      0.583996
     22 O5          4.8300   -6.0760   -0.1490 o         1 MOL     -0.589961
     23 C9          1.5480   -5.7980    0.1390 c3        1 MOL      0.220115
     24 C10         0.4380   -5.5060    1.1960 c3        1 MOL      0.273901
     25 C11         1.7730   -7.3270   -0.1100 c3        1 MOL     -0.251820
     26 C12        -0.8360   -6.2460    0.7580 c3        1 MOL     -0.177027
     27 H8          2.0010   -3.1820    0.6370 hn        1 MOL      0.163070
     28 H9          3.1390   -5.7740    1.5820 h1        1 MOL      0.093194
     29 H10         1.2980   -5.2980   -0.7900 hc        1 MOL     -0.021534
     30 H11         0.1180   -4.4640    1.1730 hc        1 MOL     -0.041155
     31 H12         0.7460   -5.7590    2.2050 hc        1 MOL     -0.041155
     32 H13         2.0370   -7.8130    0.8320 hc        1 MOL      0.046887
     33 H14         0.8780   -7.7550   -0.5510 hc        1 MOL      0.046887
     34 H15         2.5040   -7.5300   -0.8910 hc        1 MOL      0.046887
     35 H16        -1.1480   -5.9100   -0.2280 hc        1 MOL      0.015790
     36 H17        -0.7010   -7.2980    0.9670 hc        1 MOL      0.015790
     37 H18        -1.6060   -5.9900    1.4970 hc        1 MOL      0.015790
     38 N3          3.8940   -4.3800   -1.2620 n         1 MOL     -0.405380
     39 C13         4.8850   -4.2630   -2.2870 c3        1 MOL      0.001651
     40 C14         6.0350   -3.3840   -1.8850 c         1 MOL      0.416129
     41 O6          7.0220   -3.5060   -2.6320 o         1 MOL     -0.544932
     42 C15         4.2310   -3.7710   -3.6500 c3        1 MOL     -0.246575
     43 C16         3.3190   -2.5400   -3.5680 c         1 MOL      0.867035
     44 O7          2.7750   -2.1840   -4.6290 o         1 MOL     -0.743932
     45 O8          3.1410   -2.0240   -2.5020 o         1 MOL     -0.743932
     46 H19         3.2670   -3.5900   -1.1880 hn        1 MOL      0.338392
     47 H20         5.2790   -5.2600   -2.4970 h1        1 MOL      0.092853
     48 H21         3.5750   -4.5710   -3.9840 hc        1 MOL      0.053736
     49 H22         5.0230   -3.7450   -4.4020 hc        1 MOL      0.053736
     50 N4          6.0180   -2.6700   -0.7860 n         1 MOL      0.050844
     51 C17         7.1980   -2.0480   -0.2020 c3        1 MOL     -0.397328
     52 C18         7.6870   -0.9010   -1.0480 c         1 MOL      0.723700
     53 O9          8.6630   -1.0920   -1.8090 o         1 MOL     -0.583783
     54 H23         5.1340   -2.6400   -0.2940 hn        1 MOL      0.081555
     55 H24         7.9850   -2.8060   -0.1990 h1        1 MOL      0.116528
     56 H25         7.0340   -1.6610    0.8060 h1        1 MOL      0.116528
     57 N5          7.0160    0.1910   -0.7770 n         1 MOL     -0.515231
     58 C19         7.4760    1.5000   -1.2770 c3        1 MOL      0.171237
     59 C20         7.4380    2.6090   -0.1870 c         1 MOL      0.375624
     60 O10         7.9420    3.7430   -0.3300 o         1 MOL     -0.542318
     61 C21         6.7320    1.7840   -2.5620 c3        1 MOL     -0.249426
     62 C22         5.2610    1.7080   -2.1490 c         1 MOL      0.808036
     63 O11         4.7300    2.6920   -1.5480 o         1 MOL     -0.749447
     64 O12         4.5350    0.7570   -2.4780 o         1 MOL     -0.749447
     65 H26         6.1570    0.1700   -0.2390 hn        1 MOL      0.196428
     66 H27         8.5190    1.2770   -1.4900 h1        1 MOL      0.028551
     67 H28         6.9680    1.0220   -3.3180 hc        1 MOL      0.075285
     68 H29         6.9870    2.7760   -2.9350 hc        1 MOL      0.075285
     69 N6          6.7580    2.3770    0.9680 n         1 MOL     -0.244887
     70 C23         6.6700    3.3910    1.9890 c3        1 MOL      0.030778
     71 C24         5.4420    4.2730    1.9900 c         1 MOL      0.530744
     72 O13         5.4220    5.2840    2.7000 o         1 MOL     -0.596183
     73 H30         6.3110    1.4790    1.0750 hn        1 MOL      0.237099
     74 H31         7.5760    4.0020    2.0250 h1        1 MOL      0.032531
     75 H32         6.8100    2.8690    2.9440 h1        1 MOL      0.032531
     76 N7          4.4590    3.8920    1.1870 n         1 MOL     -0.392624
     77 C25         3.0590    4.2640    1.2930 c3        1 MOL      0.054275
     78 C26         2.0990    3.0250    1.3380 c         1 MOL      0.529278
     79 O14         2.3780    1.9580    0.8150 o         1 MOL     -0.548487
     80 C27         2.6870    5.2960    0.2000 c3        1 MOL     -0.146293
     81 C28         3.4060    6.6440    0.3240 c3        1 MOL     -0.153389
     82 C29         3.1790    7.7370   -0.7340 c         1 MOL      0.634932
     83 N8          3.9570    8.7910   -0.5770 n         1 MOL     -0.764902
     84 O15         2.4270    7.7420   -1.7040 o         1 MOL     -0.552800
     85 H33         4.6470    3.2710    0.4200 hn        1 MOL      0.334042
     86 H34         3.0400    4.8650    2.1990 h1        1 MOL      0.032085
     87 H35         1.6160    5.5060    0.1670 hc        1 MOL      0.080350
     88 H36         2.9780    4.7520   -0.7030 hc        1 MOL      0.080350
     89 H37         4.4610    6.4200    0.4620 hc        1 MOL      0.075105
     90 H38         3.2150    7.0700    1.3140 hc        1 MOL      0.075105
     91 H39         4.6130    8.9730    0.1710 hn        1 MOL      0.333613
     92 H40         3.7400    9.5650   -1.1880 hn        1 MOL      0.333613
     93 N9          0.8950    3.3380    1.8390 n         1 MOL     -0.463843
     94 C30        -0.2470    2.3390    1.9320 c3        1 MOL      0.135553
     95 C31        -1.4160    2.9130    1.1380 c         1 MOL      0.384346
     96 O16        -2.0040    3.9800    1.4250 o         1 MOL     -0.570763
     97 C32        -0.5290    1.9650    3.3430 c3        1 MOL      0.090594
     98 C33        -1.7660    1.0860    3.6480 c3        1 MOL     -0.250622
     99 C34         0.6280    1.2340    4.1130 c3        1 MOL     -0.250622
    100 H41         0.7240    4.2410    2.2700 hn        1 MOL      0.292737
    101 H42        -0.0210    1.4060    1.4090 h1        1 MOL      0.007454
    102 H43        -0.6130    2.9150    3.8680 hc        1 MOL     -0.012577
    103 H44        -2.6700    1.4490    3.1450 hc        1 MOL      0.066297
    104 H45        -1.6060    0.1270    3.1520 hc        1 MOL      0.066297
    105 H46        -2.0170    1.0410    4.7110 hc        1 MOL      0.066297
    106 H47         0.7650    0.3140    3.5420 hc        1 MOL      0.066297
    107 H48         1.5580    1.7800    4.2730 hc        1 MOL      0.066297
    108 H49         0.2860    0.9250    5.0990 hc        1 MOL      0.066297
    109 N10        -1.7460    2.3110    0.0110 n         1 MOL     -0.096334
    110 C35        -3.0260    2.5240   -0.6630 c3        1 MOL     -0.019326
    111 C36        -4.2100    1.9840    0.1460 c         1 MOL      0.280594
    112 O17        -3.9690    1.1460    0.9980 o         1 MOL     -0.209508
    113 C37        -2.8070    2.0550   -2.0850 c3        1 MOL     -0.514784
    114 C38        -3.9590    2.5330   -2.9020 c         1 MOL      0.717490
    115 N11        -3.6480    3.3970   -3.8730 n         1 MOL     -0.721257
    116 O18        -5.1390    2.1340   -2.8780 o         1 MOL     -0.542378
    117 H50        -1.0800    1.6320   -0.3050 hn        1 MOL      0.144001
    118 H51        -3.1990    3.5980   -0.6740 h1        1 MOL      0.079502
    119 H52        -2.7680    0.9790   -2.2350 hc        1 MOL      0.196287
    120 H53        -1.8130    2.2510   -2.4870 hc        1 MOL      0.196287
    121 H54        -2.7490    3.8470   -3.9870 hn        1 MOL      0.328559
    122 H55        -4.2690    3.8770   -4.5000 hn        1 MOL      0.328559
    123 N12        -5.4460    2.4960   -0.0470 n         1 MOL     -0.348161
    124 C39        -6.7070    1.8970    0.3430 c3        1 MOL      0.072755
    125 C40        -6.8050    0.3910    0.2350 c         1 MOL      0.582004
    126 O19        -7.0690   -0.2910    1.2480 o         1 MOL     -0.581993
    127 C41        -7.8650    2.4860   -0.5230 c3        1 MOL     -0.203407
    128 C42        -9.1670    2.0160    0.0310 ca        1 MOL      0.029736
    129 C43        -9.4590    2.3110    1.3960 ca        1 MOL     -0.171446
    130 C44        -9.9960    1.1060   -0.6520 ca        1 MOL     -0.171446
    131 C45       -10.4640    1.6330    2.0530 ca        1 MOL     -0.254807
    132 C46       -11.0200    0.4580   -0.0050 ca        1 MOL     -0.254807
    133 C47       -11.2680    0.6980    1.3680 ca        1 MOL      0.382720
    134 O20       -12.4130    0.1820    1.9010 oh        1 MOL     -0.554672
    135 H56        -5.4340    3.3100   -0.6560 hn        1 MOL      0.251415
    136 H57        -6.8300    2.1670    1.3970 h1        1 MOL      0.042685
    137 H58        -7.7720    2.1120   -1.5480 hc        1 MOL      0.080466
    138 H59        -7.7360    3.5730   -0.4980 hc        1 MOL      0.080466
    139 H60        -8.8320    3.0140    1.9230 ha        1 MOL      0.150070
    140 H61        -9.8080    0.9820   -1.6990 ha        1 MOL      0.150070
    141 H62       -10.6640    1.7700    3.1000 ha        1 MOL      0.137575
    142 H63       -11.6050   -0.3110   -0.4960 ha        1 MOL      0.137575
    143 H64       -12.7130   -0.5720    1.3900 ho        1 MOL      0.385630
    144 N13        -6.4800   -0.0940   -0.9380 n         1 MOL     -0.168006
    145 C48        -6.4440   -1.5370   -1.2450 c3        1 MOL     -0.324548
    146 C49        -5.3540   -2.3490   -0.5100 c         1 MOL      0.382960
    147 O21        -5.3460   -3.5400   -0.6030 o         1 MOL     -0.509707
    148 C50        -6.2640   -1.7450   -2.7850 c3        1 MOL      0.352040
    149 C51        -7.4550   -1.2510   -3.5690 c3        1 MOL     -0.345207
    150 C52        -7.3510   -1.5780   -5.0480 c         1 MOL      0.853578
    151 O22        -8.4420   -1.4910   -5.6590 o         1 MOL     -0.785530
    152 O23        -6.3540   -1.9060   -5.6220 o         1 MOL     -0.785530
    153 H65        -6.0290    0.4840   -1.6250 hn        1 MOL      0.239577
    154 H66        -7.4230   -1.9390   -0.9650 h1        1 MOL      0.157784
    155 H67        -6.0610   -2.8020   -2.9810 hc        1 MOL     -0.034604
    156 H68        -5.4170   -1.1900   -3.1830 hc        1 MOL     -0.034604
    157 H69        -7.6520   -0.1830   -3.4580 hc        1 MOL      0.015806
    158 H70        -8.2860   -1.7770   -3.1150 hc        1 MOL      0.015806
    159 N14        -4.5160   -1.6370    0.2490 n         1 MOL     -0.140906
    160 C53        -3.4510   -2.2990    1.1830 c3        1 MOL      0.053416
    161 C54        -3.8460   -2.1620    2.6710 c         1 MOL      0.355319
    162 O24        -3.8100   -3.1080    3.4310 o         1 MOL     -0.540119
    163 C55        -2.1230   -1.7410    0.9630 c3        1 MOL      0.273011
    164 C56        -1.7880   -1.7610   -0.4840 c3        1 MOL      0.013190
    165 C57        -0.3900   -1.1010   -0.7250 c         1 MOL      0.624111
    166 O25         0.6170   -1.7770   -0.8730 o         1 MOL     -0.677160
    167 O26        -0.2210    0.1380   -0.9460 o         1 MOL     -0.677160
    168 H71        -4.6530   -0.6390    0.3350 hn        1 MOL      0.053002
    169 H72        -3.2210   -3.3440    0.9970 h1        1 MOL      0.045839
    170 H73        -1.3620   -2.1810    1.5940 hc        1 MOL     -0.044632
    171 H74        -2.1550   -0.6830    1.2420 hc        1 MOL     -0.044632
    172 H75        -2.5140   -1.2070   -1.0870 hc        1 MOL     -0.029894
    173 H76        -1.7880   -2.7790   -0.8680 hc        1 MOL     -0.029894
    174 N15        -4.4460   -1.0350    2.9980 n         1 MOL      0.071781
    175 C58        -5.1130   -0.7640    4.2470 c3        1 MOL     -0.433615
    176 H77        -6.1560   -1.0710    4.1750 h1        1 MOL      0.130796
    177 H78        -4.6260   -1.3190    5.0480 h1        1 MOL      0.130796
    178 H79        -5.0630    0.3040    4.4620 h1        1 MOL      0.130796
    179 H80        -4.4720   -0.2800    2.3360 hn        1 MOL      0.030610
    180 Ca1         2.2930    0.1980   -1.3500 Ca        1 MOL      1.715908
    181 O27         1.3100   -0.1850   -3.7120 oh        1 MOL     -0.892133
    182 H81         0.5800   -0.1720   -4.3290 ho        1 MOL      0.407552
    183 H82         1.9220   -0.8260   -4.0830 ho        1 MOL      0.407552
    184 O28         2.1100    2.7940   -2.3250 oh        1 MOL     -0.892133
    185 H83         3.0640    2.8480   -2.2460 ho        1 MOL      0.407552
    186 H84         1.9560    2.6410   -3.2550 ho        1 MOL      0.407552
@<TRIPOS>BOND
     1    1    2 1   
     2    1    4 1   
     3    1    5 1   
     4    1    6 1   
     5    2    3 2   
     6    2    7 1   
     7    7    8 1   
     8    7   15 1   
     9    8    9 1   
    10    8   11 1   
    11    8   16 1   
    12    9   10 2   
    13    9   19 1   
    14   11   12 1   
    15   11   17 1   
    16   11   18 1   
    17   12   13 1   
    18   12   14 1   
    19   19   20 1   
    20   19   27 1   
    21   20   21 1   
    22   20   23 1   
    23   20   28 1   
    24   21   22 2   
    25   21   38 1   
    26   23   24 1   
    27   23   25 1   
    28   23   29 1   
    29   24   26 1   
    30   24   30 1   
    31   24   31 1   
    32   25   32 1   
    33   25   33 1   
    34   25   34 1   
    35   26   35 1   
    36   26   36 1   
    37   26   37 1   
    38   38   39 1   
    39   38   46 1   
    40   39   40 1   
    41   39   42 1   
    42   39   47 1   
    43   40   41 2   
    44   40   50 1   
    45   42   43 1   
    46   42   48 1   
    47   42   49 1   
    48   43   44 1   
    49   43   45 1   
    50   50   51 1   
    51   50   54 1   
    52   51   52 1   
    53   51   55 1   
    54   51   56 1   
    55   52   53 2   
    56   52   57 1   
    57   57   58 1   
    58   57   65 1   
    59   58   59 1   
    60   58   61 1   
    61   58   66 1   
    62   59   60 2   
    63   59   69 1   
    64   61   62 1   
    65   61   67 1   
    66   61   68 1   
    67   62   63 1   
    68   62   64 1   
    69   69   70 1   
    70   69   73 1   
    71   70   71 1   
    72   70   74 1   
    73   70   75 1   
    74   71   72 2   
    75   71   76 1   
    76   76   77 1   
    77   76   85 1   
    78   77   78 1   
    79   77   80 1   
    80   77   86 1   
    81   78   79 2   
    82   78   93 1   
    83   80   81 1   
    84   80   87 1   
    85   80   88 1   
    86   81   82 1   
    87   81   89 1   
    88   81   90 1   
    89   82   83 1   
    90   82   84 2   
    91   83   91 1   
    92   83   92 1   
    93   93   94 1   
    94   93  100 1   
    95   94   95 1   
    96   94   97 1   
    97   94  101 1   
    98   95   96 2   
    99   95  109 1   
   100   97   98 1   
   101   97   99 1   
   102   97  102 1   
   103   98  103 1   
   104   98  104 1   
   105   98  105 1   
   106   99  106 1   
   107   99  107 1   
   108   99  108 1   
   109  109  110 1   
   110  109  117 1   
   111  110  111 1   
   112  110  113 1   
   113  110  118 1   
   114  111  112 2   
   115  111  123 1   
   116  113  114 1   
   117  113  119 1   
   118  113  120 1   
   119  114  115 1   
   120  114  116 2   
   121  115  121 1   
   122  115  122 1   
   123  123  124 1   
   124  123  135 1   
   125  124  125 1   
   126  124  127 1   
   127  124  136 1   
   128  125  126 2   
   129  125  144 1   
   130  127  128 1   
   131  127  137 1   
   132  127  138 1   
   133  128  129 ar  
   134  128  130 ar  
   135  129  131 ar  
   136  129  139 1   
   137  130  132 ar  
   138  130  140 1   
   139  131  133 ar  
   140  131  141 1   
   141  132  133 ar  
   142  132  142 1   
   143  133  134 1   
   144  134  143 1   
   145  144  145 1   
   146  144  153 1   
   147  145  146 1   
   148  145  148 1   
   149  145  154 1   
   150  146  147 2   
   151  146  159 1   
   152  148  149 1   
   153  148  155 1   
   154  148  156 1   
   155  149  150 1   
   156  149  157 1   
   157  149  158 1   
   158  150  151 1   
   159  150  152 1   
   160  159  160 1   
   161  159  168 1   
   162  160  161 1   
   163  160  163 1   
   164  160  169 1   
   165  161  162 2   
   166  161  174 1   
   167  163  164 1   
   168  163  170 1   
   169  163  171 1   
   170  164  165 1   
   171  164  172 1   
   172  164  173 1   
   173  165  166 1   
   174  165  167 1   
   175  174  175 1   
   176  174  179 1   
   177  175  176 1   
   178  175  177 1   
   179  175  178 1   
   180  181  182 1   
   181  181  183 1   
   182  184  185 1   
   183  184  186 1   
@<TRIPOS>SUBSTRUCTURE
     1 MOL         1 TEMP              0 ****  ****    0 ROOT
