@<TRIPOS>MOLECULE
MOL
  186   183     1     0     0
SMALL
resp


@<TRIPOS>ATOM
      1 C1          0.3300   -1.9580    6.1710 c3        1 MOL     -0.384479
      2 C2          0.6850   -2.0010    4.7090 c         1 MOL      0.697445
      3 O1         -0.0530   -2.5270    3.8540 o         1 MOL     -0.585170
      4 H1          0.1140   -2.9670    6.5220 hc        1 MOL      0.093471
      5 H2          1.1670   -1.5480    6.7360 hc        1 MOL      0.093471
      6 H3         -0.5480   -1.3280    6.3130 hc        1 MOL      0.093471
      7 N1          1.7600   -1.3380    4.3110 n         1 MOL     -0.415399
      8 C3          2.2980   -1.4920    2.9430 c3        1 MOL      0.017196
      9 C4          2.8090   -2.9310    2.5720 c         1 MOL      0.426455
     10 O2          3.6500   -3.5380    3.2550 o         1 MOL     -0.558269
     11 C5          3.4630   -0.5110    2.9060 c3        1 MOL     -0.378431
     12 C6          4.3040   -0.5010    1.6190 c         1 MOL      0.979453
     13 O3          5.4090    0.0820    1.6060 o         1 MOL     -0.762303
     14 O4          3.8080   -1.0520    0.6110 o         1 MOL     -0.762303
     15 H4          2.2350   -0.8080    5.0190 hn        1 MOL      0.282656
     16 H5          1.4640   -1.2300    2.3000 h1        1 MOL      0.059337
     17 H6          4.1840   -0.5980    3.7060 hc        1 MOL      0.070884
     18 H7          3.0850    0.5090    2.9780 hc        1 MOL      0.070884
     19 N2          2.2590   -3.4860    1.4770 n         1 MOL     -0.087683
     20 C7          2.4870   -4.8910    1.1120 c3        1 MOL     -0.227868
     21 C8          3.7010   -5.0770    0.1430 c         1 MOL      0.695168
     22 O5          4.2170   -6.1920    0.0210 o         1 MOL     -0.594669
     23 C9          1.1670   -5.4650    0.5190 c3        1 MOL      0.123370
     24 C10         0.0280   -5.5940    1.5550 c3        1 MOL      0.021032
     25 C11         1.5170   -6.8570   -0.0520 c3        1 MOL     -0.135907
     26 C12        -1.3720   -5.9990    1.1030 c3        1 MOL     -0.208821
     27 H8          1.6380   -2.9420    0.9020 hn        1 MOL      0.199695
     28 H9          2.7160   -5.4010    2.0480 h1        1 MOL      0.079429
     29 H10         0.9430   -4.7870   -0.3070 hc        1 MOL      0.059958
     30 H11        -0.0700   -4.6160    2.0150 hc        1 MOL      0.013499
     31 H12         0.2510   -6.2770    2.3670 hc        1 MOL      0.013499
     32 H13         0.6070   -7.4330   -0.2020 hc        1 MOL      0.017819
     33 H14         2.0770   -6.7950   -0.9890 hc        1 MOL      0.017819
     34 H15         2.0850   -7.4860    0.6220 hc        1 MOL      0.017819
     35 H16        -1.4610   -7.0400    0.7920 hc        1 MOL      0.046059
     36 H17        -2.0370   -5.9210    1.9640 hc        1 MOL      0.046059
     37 H18        -1.6530   -5.3210    0.2990 hc        1 MOL      0.046059
     38 N3          4.2790   -3.9990   -0.4260 n         1 MOL     -0.593516
     39 C13         5.2120   -4.0360   -1.6380 c3        1 MOL      0.090428
     40 C14         6.3520   -3.0190   -1.4390 c         1 MOL      0.496422
     41 O6          7.2660   -2.9880   -2.2970 o         1 MOL     -0.546357
     42 C15         4.4130   -3.9120   -3.0250 c3        1 MOL     -0.156273
     43 C16         3.3740   -2.7890   -3.1970 c         1 MOL      0.794223
     44 O7          3.3880   -1.8340   -2.3850 o         1 MOL     -0.720122
     45 O8          2.5180   -2.9260   -4.1240 o         1 MOL     -0.720122
     46 H19         3.8240   -3.1270   -0.1760 hn        1 MOL      0.321248
     47 H20         5.6710   -5.0280   -1.5900 h1        1 MOL      0.071507
     48 H21         3.8800   -4.8430   -3.2240 hc        1 MOL      0.030119
     49 H22         5.1330   -3.7780   -3.8240 hc        1 MOL      0.030119
     50 N4          6.3830   -2.2700   -0.2620 n         1 MOL     -0.324325
     51 C17         7.6000   -1.5890    0.3010 c3        1 MOL     -0.198679
     52 C18         8.0390   -0.2910   -0.4240 c         1 MOL      0.543442
     53 O9          9.1390    0.1900   -0.3280 o         1 MOL     -0.587522
     54 H23         5.5350   -2.1750    0.2820 hn        1 MOL      0.231012
     55 H24         8.4840   -2.2330    0.2850 h1        1 MOL      0.110721
     56 H25         7.4080   -1.3580    1.3470 h1        1 MOL      0.110721
     57 N5          7.0350    0.3400   -1.1240 n         1 MOL     -0.254531
     58 C19         7.1970    1.6150   -1.7630 c3        1 MOL      0.028066
     59 C20         7.0760    2.7210   -0.6870 c         1 MOL      0.389584
     60 O10         7.1860    3.9050   -1.0830 o         1 MOL     -0.574474
     61 C21         6.1740    1.8700   -2.8520 c3        1 MOL     -0.258776
     62 C22         4.7920    1.4970   -2.3670 c         1 MOL      0.685203
     63 O11         4.0840    0.7780   -3.0740 o         1 MOL     -0.686293
     64 O12         4.1990    1.9650   -1.3720 o         1 MOL     -0.686293
     65 H26         6.0930   -0.0060   -0.9940 hn        1 MOL      0.159339
     66 H27         8.1780    1.7540   -2.2170 h1        1 MOL      0.098357
     67 H28         6.4850    1.1990   -3.6620 hc        1 MOL      0.082864
     68 H29         6.2780    2.8820   -3.2390 hc        1 MOL      0.082864
     69 N6          6.9370    2.4600    0.5790 n         1 MOL     -0.247767
     70 C23         6.9500    3.5080    1.6140 c3        1 MOL     -0.054544
     71 C24         5.5780    4.2510    1.7900 c         1 MOL      0.544475
     72 O13         5.6030    5.2850    2.4320 o         1 MOL     -0.575026
     73 H30         6.7490    1.5000    0.8350 hn        1 MOL      0.292700
     74 H31         7.7290    4.2650    1.5700 h1        1 MOL      0.068832
     75 H32         7.1530    3.0320    2.5760 h1        1 MOL      0.068832
     76 N7          4.4390    3.7070    1.2590 n         1 MOL     -0.369280
     77 C25         3.1630    4.2900    1.1240 c3        1 MOL      0.079370
     78 C26         2.1350    3.1950    1.2550 c         1 MOL      0.624169
     79 O14         2.2750    2.0260    0.8380 o         1 MOL     -0.664212
     80 C27         3.3030    5.0020   -0.2550 c3        1 MOL     -0.074126
     81 C28         2.0980    5.8310   -0.5480 c3        1 MOL     -0.362663
     82 C29         2.4170    6.9300   -1.5130 c         1 MOL      0.785980
     83 N8          2.1560    6.9110   -2.7820 n         1 MOL     -0.831312
     84 O15         2.8850    7.9660   -1.1140 o         1 MOL     -0.603703
     85 H33         4.5710    2.8020    0.8310 hn        1 MOL      0.161550
     86 H34         3.1800    4.9790    1.9630 h1        1 MOL      0.040038
     87 H35         3.5060    4.2530   -1.0110 hc        1 MOL      0.101243
     88 H36         4.1500    5.6840   -0.2870 hc        1 MOL      0.101243
     89 H37         1.9000    6.4650    0.3070 hc        1 MOL      0.079089
     90 H38         1.2870    5.1640   -0.8470 hc        1 MOL      0.079089
     91 H39         1.8480    6.0570   -3.2260 hn        1 MOL      0.356568
     92 H40         2.4480    7.6400   -3.4180 hn        1 MOL      0.356568
     93 N9          0.9650    3.5380    1.7340 n         1 MOL     -0.365314
     94 C30        -0.2180    2.6510    1.9180 c3        1 MOL     -0.058012
     95 C31        -1.4240    3.0560    1.0680 c         1 MOL      0.598509
     96 O16        -2.0600    4.0640    1.2510 o         1 MOL     -0.574960
     97 C32        -0.5770    2.6270    3.4260 c3        1 MOL      0.269536
     98 C33        -1.7080    1.6270    3.7350 c3        1 MOL     -0.242377
     99 C34         0.5790    2.2300    4.3710 c3        1 MOL     -0.242377
    100 H41         0.7350    4.5110    1.8590 hn        1 MOL      0.235717
    101 H42        -0.0250    1.6080    1.6570 h1        1 MOL      0.199930
    102 H43        -0.8920    3.6110    3.7820 hc        1 MOL     -0.043768
    103 H44        -1.7990    1.5300    4.8110 hc        1 MOL      0.038293
    104 H45        -2.6090    2.0710    3.3050 hc        1 MOL      0.038293
    105 H46        -1.4440    0.6510    3.3180 hc        1 MOL      0.038293
    106 H47         0.9900    1.2180    4.3380 hc        1 MOL      0.038293
    107 H48         1.3100    3.0050    4.1600 hc        1 MOL      0.038293
    108 H49         0.2310    2.3410    5.4020 hc        1 MOL      0.038293
    109 N10        -1.7020    2.3030   -0.0190 n         1 MOL     -0.489315
    110 C35        -2.9710    2.3680   -0.7690 c3        1 MOL      0.258469
    111 C36        -4.1660    1.8850    0.0440 c         1 MOL      0.283757
    112 O17        -4.0680    1.0570    0.9430 o         1 MOL     -0.304327
    113 C37        -2.7450    1.4840   -2.0750 c3        1 MOL     -0.372807
    114 C38        -3.8600    1.5850   -3.1460 c         1 MOL      0.525708
    115 N11        -3.8210    0.7600   -4.1550 n         1 MOL     -0.613984
    116 O18        -4.7790    2.4020   -3.1440 o         1 MOL     -0.560229
    117 H50        -1.1750    1.4760   -0.2580 hn        1 MOL      0.195959
    118 H51        -3.1550    3.4090   -1.0150 h1        1 MOL      0.040472
    119 H52        -2.7960    0.4750   -1.6790 hc        1 MOL      0.164793
    120 H53        -1.7420    1.7590   -2.3980 hc        1 MOL      0.164793
    121 H54        -3.0550    0.1310   -4.3450 hn        1 MOL      0.341205
    122 H55        -4.5420    1.0740   -4.7940 hn        1 MOL      0.341205
    123 N12        -5.3590    2.2490   -0.3740 n         1 MOL     -0.389658
    124 C39        -6.6210    1.8580    0.0990 c3        1 MOL      0.195505
    125 C40        -6.9020    0.3720   -0.2160 c         1 MOL      0.764365
    126 O19        -7.3390   -0.3240    0.6780 o         1 MOL     -0.553462
    127 C41        -7.6330    2.7970   -0.5540 c3        1 MOL     -0.171389
    128 C42        -9.0730    2.3960   -0.2610 ca        1 MOL     -0.066391
    129 C43        -9.5500    2.5580    1.1350 ca        1 MOL     -0.098328
    130 C44        -9.9090    1.8280   -1.2350 ca        1 MOL     -0.098328
    131 C45       -10.8070    2.1440    1.4700 ca        1 MOL     -0.340962
    132 C46       -11.2030    1.3760   -0.8480 ca        1 MOL     -0.340962
    133 C47       -11.6160    1.5480    0.4830 ca        1 MOL      0.424824
    134 O20       -12.8390    1.0130    0.7210 oh        1 MOL     -0.502727
    135 H56        -5.3390    2.9290   -1.1170 hn        1 MOL      0.223737
    136 H57        -6.7080    2.0100    1.1780 h1        1 MOL      0.047134
    137 H58        -7.5140    2.7150   -1.6380 hc        1 MOL      0.070493
    138 H59        -7.3570    3.7990   -0.2210 hc        1 MOL      0.070493
    139 H60        -8.9170    3.0580    1.8640 ha        1 MOL      0.133011
    140 H61        -9.5600    1.6860   -2.2450 ha        1 MOL      0.133011
    141 H62       -11.1980    2.0600    2.4860 ha        1 MOL      0.171826
    142 H63       -11.8510    0.8290   -1.5310 ha        1 MOL      0.171826
    143 H64       -13.2540    0.9070   -0.1410 ho        1 MOL      0.330762
    144 N13        -6.4050   -0.2230   -1.3310 n         1 MOL     -0.711892
    145 C48        -6.1210   -1.6710   -1.5650 c3        1 MOL      0.164291
    146 C49        -5.4620   -2.3580   -0.3970 c         1 MOL      0.255113
    147 O21        -5.7810   -3.4620    0.0160 o         1 MOL     -0.494030
    148 C50        -5.3790   -1.7750   -2.8740 c3        1 MOL     -0.038826
    149 C51        -5.0350   -3.1790   -3.2440 c3        1 MOL     -0.258830
    150 C52        -4.6860   -3.2320   -4.7560 c         1 MOL      0.770542
    151 O22        -5.5610   -3.4390   -5.6090 o         1 MOL     -0.750260
    152 O23        -3.5060   -2.9900   -5.0350 o         1 MOL     -0.750260
    153 H65        -5.8380    0.4000   -1.8850 hn        1 MOL      0.269999
    154 H66        -7.1050   -2.1420   -1.5990 h1        1 MOL      0.079733
    155 H67        -4.4320   -1.2550   -2.7490 hc        1 MOL      0.038909
    156 H68        -5.9250   -1.2360   -3.6580 hc        1 MOL      0.038909
    157 H69        -5.8700   -3.8140   -2.9530 hc        1 MOL      0.035474
    158 H70        -4.1340   -3.4430   -2.6860 hc        1 MOL      0.035474
    159 N14        -4.4600   -1.7330    0.1820 n         1 MOL      0.015089
    160 C53        -3.6770   -2.2650    1.3050 c3        1 MOL     -0.203140
    161 C54        -4.3560   -2.0570    2.6940 c         1 MOL      0.509425
    162 O24        -4.3100   -2.9350    3.5510 o         1 MOL     -0.561662
    163 C55        -2.2710   -1.7470    1.3060 c3        1 MOL      0.335649
    164 C56        -1.6170   -1.9280   -0.0460 c3        1 MOL     -0.120280
    165 C57        -0.2020   -1.3550   -0.0320 c         1 MOL      0.648870
    166 O25         0.7280   -2.0560   -0.3700 o         1 MOL     -0.739979
    167 O26        -0.0020   -0.1660    0.1530 o         1 MOL     -0.739979
    168 H71        -3.9970   -0.9460   -0.2490 hn        1 MOL      0.153362
    169 H72        -3.5180   -3.3420    1.2660 h1        1 MOL      0.074145
    170 H73        -1.7330   -2.2380    2.1150 hc        1 MOL     -0.036832
    171 H74        -2.3440   -0.7050    1.6100 hc        1 MOL     -0.036832
    172 H75        -2.1840   -1.5400   -0.8830 hc        1 MOL      0.026230
    173 H76        -1.4800   -3.0000   -0.2100 hc        1 MOL      0.026230
    174 N15        -4.9530   -0.8780    2.9190 n         1 MOL     -0.118955
    175 C58        -5.5660   -0.4980    4.1830 c3        1 MOL     -0.244111
    176 H77        -5.7630   -1.3920    4.7740 h1        1 MOL      0.087433
    177 H78        -4.8910    0.1580    4.7320 h1        1 MOL      0.087433
    178 H79        -6.5040    0.0230    3.9910 h1        1 MOL      0.087433
    179 H80        -5.0660   -0.2050    2.1700 hn        1 MOL      0.048473
    180 Ca1         2.3810    0.1630   -1.0630 Ca        1 MOL      1.748959
    181 O27         0.9540   -0.2970   -3.4310 oh        1 MOL     -0.804832
    182 H81         0.0250   -0.3350   -3.6380 ho        1 MOL      0.383617
    183 H82         1.3270   -1.0700   -3.8740 ho        1 MOL      0.383617
    184 O28         1.6740    2.3120   -2.4180 oh        1 MOL     -0.804832
    185 H83         1.4310    2.6180   -3.2900 ho        1 MOL      0.383617
    186 H84         2.6010    2.5380   -2.3280 ho        1 MOL      0.383617
@<TRIPOS>BOND
     1    1    2 1   
     2    1    4 1   
     3    1    5 1   
     4    1    6 1   
     5    2    3 2   
     6    2    7 1   
     7    7    8 1   
     8    7   15 1   
     9    8    9 1   
    10    8   11 1   
    11    8   16 1   
    12    9   10 2   
    13    9   19 1   
    14   11   12 1   
    15   11   17 1   
    16   11   18 1   
    17   12   13 1   
    18   12   14 1   
    19   19   20 1   
    20   19   27 1   
    21   20   21 1   
    22   20   23 1   
    23   20   28 1   
    24   21   22 2   
    25   21   38 1   
    26   23   24 1   
    27   23   25 1   
    28   23   29 1   
    29   24   26 1   
    30   24   30 1   
    31   24   31 1   
    32   25   32 1   
    33   25   33 1   
    34   25   34 1   
    35   26   35 1   
    36   26   36 1   
    37   26   37 1   
    38   38   39 1   
    39   38   46 1   
    40   39   40 1   
    41   39   42 1   
    42   39   47 1   
    43   40   41 2   
    44   40   50 1   
    45   42   43 1   
    46   42   48 1   
    47   42   49 1   
    48   43   44 1   
    49   43   45 1   
    50   50   51 1   
    51   50   54 1   
    52   51   52 1   
    53   51   55 1   
    54   51   56 1   
    55   52   53 2   
    56   52   57 1   
    57   57   58 1   
    58   57   65 1   
    59   58   59 1   
    60   58   61 1   
    61   58   66 1   
    62   59   60 2   
    63   59   69 1   
    64   61   62 1   
    65   61   67 1   
    66   61   68 1   
    67   62   63 1   
    68   62   64 1   
    69   69   70 1   
    70   69   73 1   
    71   70   71 1   
    72   70   74 1   
    73   70   75 1   
    74   71   72 2   
    75   71   76 1   
    76   76   77 1   
    77   76   85 1   
    78   77   78 1   
    79   77   80 1   
    80   77   86 1   
    81   78   79 2   
    82   78   93 1   
    83   80   81 1   
    84   80   87 1   
    85   80   88 1   
    86   81   82 1   
    87   81   89 1   
    88   81   90 1   
    89   82   83 1   
    90   82   84 2   
    91   83   91 1   
    92   83   92 1   
    93   93   94 1   
    94   93  100 1   
    95   94   95 1   
    96   94   97 1   
    97   94  101 1   
    98   95   96 2   
    99   95  109 1   
   100   97   98 1   
   101   97   99 1   
   102   97  102 1   
   103   98  103 1   
   104   98  104 1   
   105   98  105 1   
   106   99  106 1   
   107   99  107 1   
   108   99  108 1   
   109  109  110 1   
   110  109  117 1   
   111  110  111 1   
   112  110  113 1   
   113  110  118 1   
   114  111  112 2   
   115  111  123 1   
   116  113  114 1   
   117  113  119 1   
   118  113  120 1   
   119  114  115 1   
   120  114  116 2   
   121  115  121 1   
   122  115  122 1   
   123  123  124 1   
   124  123  135 1   
   125  124  125 1   
   126  124  127 1   
   127  124  136 1   
   128  125  126 2   
   129  125  144 1   
   130  127  128 1   
   131  127  137 1   
   132  127  138 1   
   133  128  129 ar  
   134  128  130 ar  
   135  129  131 ar  
   136  129  139 1   
   137  130  132 ar  
   138  130  140 1   
   139  131  133 ar  
   140  131  141 1   
   141  132  133 ar  
   142  132  142 1   
   143  133  134 1   
   144  134  143 1   
   145  144  145 1   
   146  144  153 1   
   147  145  146 1   
   148  145  148 1   
   149  145  154 1   
   150  146  147 2   
   151  146  159 1   
   152  148  149 1   
   153  148  155 1   
   154  148  156 1   
   155  149  150 1   
   156  149  157 1   
   157  149  158 1   
   158  150  151 1   
   159  150  152 1   
   160  159  160 1   
   161  159  168 1   
   162  160  161 1   
   163  160  163 1   
   164  160  169 1   
   165  161  162 2   
   166  161  174 1   
   167  163  164 1   
   168  163  170 1   
   169  163  171 1   
   170  164  165 1   
   171  164  172 1   
   172  164  173 1   
   173  165  166 1   
   174  165  167 1   
   175  174  175 1   
   176  174  179 1   
   177  175  176 1   
   178  175  177 1   
   179  175  178 1   
   180  181  182 1   
   181  181  183 1   
   182  184  185 1   
   183  184  186 1   
@<TRIPOS>SUBSTRUCTURE
     1 MOL         1 TEMP              0 ****  ****    0 ROOT
