@<TRIPOS>MOLECULE
MOL
  172   171     1     0     0
SMALL
resp


@<TRIPOS>ATOM
      1 C1         -0.1560   -4.2760    5.1200 c3        1 MOL     -0.482341
      2 C2          0.3510   -3.9580    3.7570 c         1 MOL      0.764208
      3 O1         -0.1960   -4.4010    2.7640 o         1 MOL     -0.584612
      4 H1          0.0690   -3.4480    5.7920 hc        1 MOL      0.116750
      5 H2         -1.2340   -4.4280    5.0810 hc        1 MOL      0.116750
      6 H3          0.3260   -5.1820    5.4860 hc        1 MOL      0.116750
      7 N1          1.4730   -3.1940    3.7170 n         1 MOL     -0.618404
      8 C3          2.0980   -2.6990    2.4990 c3        1 MOL      0.063176
      9 C4          2.7640   -3.8360    1.6620 c         1 MOL      0.535809
     10 O2          3.7770   -4.3910    2.1050 o         1 MOL     -0.587508
     11 C5          3.0870   -1.6020    2.8750 c3        1 MOL     -0.007148
     12 C6          3.7350   -0.9780    1.5690 c         1 MOL      0.702625
     13 O3          3.3170   -1.0880    0.3670 o         1 MOL     -0.719604
     14 O4          4.7720   -0.2870    1.8250 o         1 MOL     -0.719604
     15 H4          1.9500   -2.9550    4.5740 hn        1 MOL      0.316345
     16 H5          1.3390   -2.2340    1.8720 h1        1 MOL      0.056130
     17 H6          3.8910   -1.9550    3.5190 hc        1 MOL      0.012004
     18 H7          2.5320   -0.8520    3.4280 hc        1 MOL      0.012004
     19 N2          2.2200   -4.2500    0.5050 n         1 MOL     -0.379793
     20 C7          2.7150   -5.2340   -0.3670 c3        1 MOL      0.355250
     21 C8          3.9690   -4.7470   -1.1280 c         1 MOL      0.163096
     22 O5          4.7580   -5.6360   -1.5140 o         1 MOL     -0.558766
     23 C9          1.6670   -5.5690   -1.4900 c3        1 MOL     -0.514006
     24 H8          1.3870   -3.7700    0.2020 hn        1 MOL      0.264264
     25 H9          3.0250   -6.0840    0.2370 h1        1 MOL      0.022461
     26 H10         1.0120   -6.3330   -1.0580 hc        1 MOL      0.137263
     27 H11         0.9820   -4.7290   -1.6140 hc        1 MOL      0.137263
     28 H12         2.1200   -5.8910   -2.4190 hc        1 MOL      0.137263
     29 N3          4.2280   -3.4760   -1.4290 n         1 MOL      0.101899
     30 C10         5.3940   -3.0090   -2.2000 c3        1 MOL      0.062532
     31 C11         6.6130   -2.7870   -1.2390 c         1 MOL      0.394364
     32 O6          7.7160   -3.0160   -1.6330 o         1 MOL     -0.541163
     33 C12         5.1750   -1.6710   -2.8440 c3        1 MOL      0.144824
     34 C13         3.8410   -1.6540   -3.5690 c         1 MOL      0.425081
     35 O7          2.7680   -1.2760   -2.9550 o         1 MOL     -0.638479
     36 O8          3.8200   -2.1150   -4.7510 o         1 MOL     -0.638479
     37 H13         3.5490   -2.7980   -1.1390 hn        1 MOL      0.068427
     38 H14         5.7190   -3.6550   -3.0060 h1        1 MOL      0.044142
     39 H15         6.0420   -1.5100   -3.4860 hc        1 MOL     -0.016655
     40 H16         5.1700   -0.8880   -2.0790 hc        1 MOL     -0.016655
     41 N4          6.3980   -2.4050   -0.0250 n         1 MOL     -0.165942
     42 C14         7.4760   -1.8230    0.7510 c3        1 MOL     -0.017843
     43 C15         7.8900   -0.3800    0.2860 c         1 MOL      0.504377
     44 O9          9.1150   -0.1260    0.0040 o         1 MOL     -0.561436
     45 H17         5.4640   -2.2630    0.3050 hn        1 MOL      0.114177
     46 H18         8.3030   -2.5340    0.8170 h1        1 MOL      0.053505
     47 H19         7.1810   -1.7770    1.7990 h1        1 MOL      0.053505
     48 N5          6.8890    0.5080    0.1890 n         1 MOL     -0.536677
     49 C16         7.0900    1.7960   -0.4700 c3        1 MOL      0.101046
     50 C17         6.6360    3.0180    0.2950 c         1 MOL      0.558866
     51 O10         6.6720    4.1570   -0.1610 o         1 MOL     -0.564146
     52 C18         6.6540    1.6280   -1.9370 c3        1 MOL     -0.067600
     53 C19         5.0870    1.7310   -2.1670 c         1 MOL      0.399915
     54 N6          4.6210    2.4730   -3.0720 n         1 MOL     -0.552094
     55 O11         4.2680    1.3610   -1.3390 o         1 MOL     -0.659408
     56 H20         5.9940    0.1940    0.5590 hn        1 MOL      0.300440
     57 H21         8.1650    1.9730   -0.4650 h1        1 MOL      0.075420
     58 H22         7.1180    0.7690   -2.4040 hc        1 MOL      0.053927
     59 H23         7.1240    2.4820   -2.4180 hc        1 MOL      0.053927
     60 H24         5.1430    2.9650   -3.7800 hn        1 MOL      0.319402
     61 H25         3.6390    2.6420   -2.9060 hn        1 MOL      0.319402
     62 N7          6.1670    2.8120    1.5520 n         1 MOL     -0.398748
     63 C20         5.7760    3.8230    2.4710 c3        1 MOL     -0.146182
     64 C21         4.3780    4.4380    2.1380 c         1 MOL      0.671502
     65 O12         3.8770    5.1070    3.0450 o         1 MOL     -0.634406
     66 H26         5.9240    1.8700    1.8020 hn        1 MOL      0.322860
     67 H27         6.3780    4.7280    2.4130 h1        1 MOL      0.098010
     68 H28         5.7440    3.4450    3.4980 h1        1 MOL      0.098010
     69 N8          3.7260    4.1700    1.0290 n         1 MOL     -0.456990
     70 C22         2.3190    4.6350    0.8390 c3        1 MOL      0.079159
     71 C23         1.2320    3.4530    0.9820 c         1 MOL      0.664880
     72 O13         1.5140    2.2950    0.6620 o         1 MOL     -0.675302
     73 C24         2.0730    5.3040   -0.5190 c3        1 MOL      0.325018
     74 C25         2.2060    6.8030   -0.3590 c3        1 MOL     -0.358467
     75 O14         3.1330    4.8500   -1.2690 oh        1 MOL     -0.546738
     76 H29         4.1730    3.6200    0.3030 hn        1 MOL      0.326719
     77 H30         2.0220    5.3490    1.6020 h1        1 MOL      0.061078
     78 H31         1.1220    5.0000   -0.9250 h1        1 MOL     -0.012789
     79 H32         2.8620    5.0150   -2.1770 ho        1 MOL      0.348266
     80 H33         1.8890    7.3480   -1.2450 hc        1 MOL      0.086292
     81 H34         1.5840    7.1170    0.4780 hc        1 MOL      0.086292
     82 H35         3.2200    7.1340   -0.1280 hc        1 MOL      0.086292
     83 N9         -0.0030    3.7830    1.3240 n         1 MOL     -0.645328
     84 C26        -1.0930    2.8510    1.4600 c3        1 MOL      0.309850
     85 C27        -1.9600    3.0510    0.2900 c         1 MOL      0.565568
     86 O15        -2.5310    4.1280    0.1410 o         1 MOL     -0.592580
     87 C28        -1.7730    2.9530    2.8400 c3        1 MOL     -0.137597
     88 C29        -0.8250    2.4500    3.9830 c3        1 MOL      0.120447
     89 C30        -3.1340    2.2690    3.0410 c3        1 MOL     -0.043907
     90 C31        -0.2370    1.0850    3.8530 c3        1 MOL     -0.005696
     91 H36        -0.0880    4.7640    1.5340 hn        1 MOL      0.299742
     92 H37        -0.7310    1.8260    1.4490 h1        1 MOL      0.090234
     93 H38        -1.9450    4.0210    2.9720 hc        1 MOL      0.017969
     94 H39        -1.3590    2.4990    4.9400 hc        1 MOL     -0.034356
     95 H40         0.0110    3.1180    4.1570 hc        1 MOL     -0.034356
     96 H41        -3.6250    2.6230    3.9480 hc        1 MOL      0.014330
     97 H42        -3.7080    2.7450    2.2510 hc        1 MOL      0.014330
     98 H43        -3.1230    1.1860    2.9530 hc        1 MOL      0.014330
     99 H44         0.4250    1.0430    2.9960 hc        1 MOL     -0.007198
    100 H45         0.1270    0.8120    4.8430 hc        1 MOL     -0.007198
    101 H46        -1.0620    0.4090    3.6170 hc        1 MOL     -0.007198
    102 N10        -2.0950    1.9760   -0.4730 n         1 MOL     -0.415473
    103 C32        -3.1240    1.8670   -1.4860 c3        1 MOL      0.053040
    104 C33        -4.5010    1.4280   -0.9330 c         1 MOL      0.513306
    105 O16        -4.5460    1.0670    0.2700 o         1 MOL     -0.402118
    106 C34        -2.6270    0.8570   -2.5300 c3        1 MOL     -0.399417
    107 C35        -1.1960    1.1010   -3.0780 c         1 MOL      0.919035
    108 O17        -0.2870    0.2960   -2.8060 o         1 MOL     -0.735573
    109 O18        -0.9030    2.0580   -3.8640 o         1 MOL     -0.735573
    110 H47        -1.5530    1.1510   -0.2210 hn        1 MOL      0.159099
    111 H48        -3.2350    2.8460   -1.9600 h1        1 MOL      0.074522
    112 H49        -3.3520    0.9000   -3.3440 hc        1 MOL      0.089707
    113 H50        -2.7510   -0.1360   -2.0910 hc        1 MOL      0.089707
    114 N11        -5.5890    1.4160   -1.6960 n         1 MOL     -0.641415
    115 C36        -6.8990    1.0310   -1.2530 c3        1 MOL      0.465258
    116 C37        -7.1240   -0.4870   -0.9520 c         1 MOL      0.222566
    117 O19        -7.7710   -0.7560    0.0820 o         1 MOL     -0.456976
    118 C38        -7.9790    1.5980   -2.0410 c3        1 MOL     -0.185022
    119 C39        -9.2870    1.5110   -1.3450 ca        1 MOL      0.147258
    120 C40        -9.6090    2.4030   -0.2850 ca        1 MOL     -0.228603
    121 C41       -10.2900    0.6360   -1.7620 ca        1 MOL     -0.228603
    122 C42       -10.8710    2.3790    0.2830 ca        1 MOL      0.009994
    123 C43       -11.6030    0.6480   -1.2450 ca        1 MOL      0.009994
    124 C44       -11.8920    1.5640   -0.2700 ca        1 MOL     -0.259780
    125 H51        -5.4730    1.7050   -2.6550 hn        1 MOL      0.324974
    126 H52        -6.8480    1.4510   -0.2440 h1        1 MOL      0.034513
    127 H53        -7.9900    1.0890   -3.0050 hc        1 MOL      0.043054
    128 H54        -7.7430    2.6430   -2.2630 hc        1 MOL      0.043054
    129 H55        -8.9060    3.1700   -0.0160 ha        1 MOL      0.119532
    130 H56        -9.9360   -0.0760   -2.4840 ha        1 MOL      0.119532
    131 H57       -11.0550    3.0250    1.1360 ha        1 MOL      0.086593
    132 H58       -12.3380   -0.0310   -1.6340 ha        1 MOL      0.086593
    133 H59       -12.8710    1.4580    0.1600 ha        1 MOL      0.131652
    134 N12        -6.5090   -1.4780   -1.6250 n         1 MOL      0.001818
    135 C45        -6.4880   -2.8710   -1.0660 c3        1 MOL     -0.075154
    136 C46        -5.6410   -2.9200    0.1870 c         1 MOL      0.315414
    137 O20        -5.8780   -3.8030    1.0490 o         1 MOL     -0.498438
    138 C47        -5.8550   -3.7280   -2.1620 c3        1 MOL     -0.057682
    139 C48        -6.1310   -2.9430   -3.4580 c3        1 MOL      0.076741
    140 C49        -5.9620   -1.5490   -2.9660 c3        1 MOL     -0.153879
    141 H60        -7.5230   -3.1390   -0.8800 h1        1 MOL      0.099931
    142 H61        -4.7880   -3.7360   -1.9540 hc        1 MOL      0.054999
    143 H62        -6.1160   -4.7790   -2.1750 hc        1 MOL      0.054999
    144 H63        -5.5020   -3.2850   -4.2790 hc        1 MOL      0.004482
    145 H64        -7.1400   -3.1160   -3.8010 hc        1 MOL      0.004482
    146 H65        -4.9080   -1.2890   -2.9350 h1        1 MOL      0.068436
    147 H66        -6.3370   -0.8970   -3.7620 h1        1 MOL      0.068436
    148 N13        -4.7780   -1.9310    0.4770 n         1 MOL      0.039159
    149 C50        -3.9080   -2.0840    1.6670 c3        1 MOL     -0.055358
    150 C51        -4.5740   -1.6390    2.8880 c         1 MOL      0.454847
    151 O21        -4.7050   -2.3000    3.8970 o         1 MOL     -0.539811
    152 C52        -2.5180   -1.4820    1.4170 c3        1 MOL     -0.063484
    153 C53        -1.8180   -2.0590    0.1890 c3        1 MOL      0.282846
    154 C54        -0.4130   -1.4230    0.0750 c         1 MOL      0.629060
    155 O22        -0.1870   -0.2100    0.2750 o         1 MOL     -0.728266
    156 O23         0.4600   -2.0480   -0.5260 o         1 MOL     -0.728266
    157 H67        -4.8130   -1.0890   -0.0730 hn        1 MOL     -0.033656
    158 H68        -3.7760   -3.1500    1.8340 h1        1 MOL      0.083018
    159 H69        -1.8000   -1.6070    2.2310 hc        1 MOL      0.005868
    160 H70        -2.5660   -0.3930    1.3850 hc        1 MOL      0.005868
    161 H71        -2.4260   -1.9420   -0.7070 hc        1 MOL     -0.055834
    162 H72        -1.7860   -3.1530    0.1940 hc        1 MOL     -0.055834
    163 N14        -5.2640   -0.4830    2.7310 n         1 MOL     -0.083681
    164 C55        -6.3500    0.0160    3.5910 c3        1 MOL     -0.169032
    165 H73        -5.9380    0.6870    4.3450 h1        1 MOL      0.065660
    166 H74        -7.0770    0.5550    2.9830 h1        1 MOL      0.065660
    167 H75        -6.8400   -0.8250    4.0830 h1        1 MOL      0.065660
    168 H76        -5.0430    0.1080    1.9420 hn        1 MOL      0.104795
    169 Ca1         1.8600    0.3680   -1.1170 Ca        1 MOL      1.797162
    170 O24         1.5550    2.4440   -2.8100 oh        1 MOL     -0.947375
    171 H77         0.6960    2.3370   -3.2080 ho        1 MOL      0.427806
    172 H78         1.8290    3.3300   -3.0530 ho        1 MOL      0.427806
@<TRIPOS>BOND
     1    1    2 1   
     2    1    4 1   
     3    1    5 1   
     4    1    6 1   
     5    2    3 2   
     6    2    7 1   
     7    7    8 1   
     8    7   15 1   
     9    8    9 1   
    10    8   11 1   
    11    8   16 1   
    12    9   10 2   
    13    9   19 1   
    14   11   12 1   
    15   11   17 1   
    16   11   18 1   
    17   12   13 1   
    18   12   14 1   
    19   19   20 1   
    20   19   24 1   
    21   20   21 1   
    22   20   23 1   
    23   20   25 1   
    24   21   22 2   
    25   21   29 1   
    26   23   26 1   
    27   23   27 1   
    28   23   28 1   
    29   29   30 1   
    30   29   37 1   
    31   30   31 1   
    32   30   33 1   
    33   30   38 1   
    34   31   32 2   
    35   31   41 1   
    36   33   34 1   
    37   33   39 1   
    38   33   40 1   
    39   34   35 1   
    40   34   36 1   
    41   41   42 1   
    42   41   45 1   
    43   42   43 1   
    44   42   46 1   
    45   42   47 1   
    46   43   44 2   
    47   43   48 1   
    48   48   49 1   
    49   48   56 1   
    50   49   50 1   
    51   49   52 1   
    52   49   57 1   
    53   50   51 2   
    54   50   62 1   
    55   52   53 1   
    56   52   58 1   
    57   52   59 1   
    58   53   54 1   
    59   53   55 2   
    60   54   60 1   
    61   54   61 1   
    62   62   63 1   
    63   62   66 1   
    64   63   64 1   
    65   63   67 1   
    66   63   68 1   
    67   64   65 2   
    68   64   69 1   
    69   69   70 1   
    70   69   76 1   
    71   70   71 1   
    72   70   73 1   
    73   70   77 1   
    74   71   72 2   
    75   71   83 1   
    76   73   74 1   
    77   73   75 1   
    78   73   78 1   
    79   74   80 1   
    80   74   81 1   
    81   74   82 1   
    82   75   79 1   
    83   83   84 1   
    84   83   91 1   
    85   84   85 1   
    86   84   87 1   
    87   84   92 1   
    88   85   86 2   
    89   85  102 1   
    90   87   88 1   
    91   87   89 1   
    92   87   93 1   
    93   88   90 1   
    94   88   94 1   
    95   88   95 1   
    96   89   96 1   
    97   89   97 1   
    98   89   98 1   
    99   90   99 1   
   100   90  100 1   
   101   90  101 1   
   102  102  103 1   
   103  102  110 1   
   104  103  104 1   
   105  103  106 1   
   106  103  111 1   
   107  104  105 2   
   108  104  114 1   
   109  106  107 1   
   110  106  112 1   
   111  106  113 1   
   112  107  108 1   
   113  107  109 1   
   114  114  115 1   
   115  114  125 1   
   116  115  116 1   
   117  115  118 1   
   118  115  126 1   
   119  116  117 2   
   120  116  134 1   
   121  118  119 1   
   122  118  127 1   
   123  118  128 1   
   124  119  120 ar  
   125  119  121 ar  
   126  120  122 ar  
   127  120  129 1   
   128  121  123 ar  
   129  121  130 1   
   130  122  124 ar  
   131  122  131 1   
   132  123  124 ar  
   133  123  132 1   
   134  124  133 1   
   135  134  135 1   
   136  134  140 1   
   137  135  136 1   
   138  135  138 1   
   139  135  141 1   
   140  136  137 2   
   141  136  148 1   
   142  138  139 1   
   143  138  142 1   
   144  138  143 1   
   145  139  140 1   
   146  139  144 1   
   147  139  145 1   
   148  140  146 1   
   149  140  147 1   
   150  148  149 1   
   151  148  157 1   
   152  149  150 1   
   153  149  152 1   
   154  149  158 1   
   155  150  151 2   
   156  150  163 1   
   157  152  153 1   
   158  152  159 1   
   159  152  160 1   
   160  153  154 1   
   161  153  161 1   
   162  153  162 1   
   163  154  155 1   
   164  154  156 1   
   165  163  164 1   
   166  163  168 1   
   167  164  165 1   
   168  164  166 1   
   169  164  167 1   
   170  170  171 1   
   171  170  172 1   
@<TRIPOS>SUBSTRUCTURE
     1 MOL         1 TEMP              0 ****  ****    0 ROOT
