@<TRIPOS>MOLECULE
MOL
  189   185     1     0     0
SMALL
resp


@<TRIPOS>ATOM
      1 C1         -0.3170   -3.6500    5.9980 c3        1 MOL     -0.396494
      2 C2          0.5280   -3.3150    4.7140 c         1 MOL      0.722667
      3 O1          0.8640   -2.1670    4.6090 o         1 MOL     -0.625964
      4 H1          0.1810   -4.4370    6.5650 hc        1 MOL      0.100339
      5 H2         -0.4060   -2.7580    6.6180 hc        1 MOL      0.100339
      6 H3         -1.3100   -3.9890    5.7020 hc        1 MOL      0.100339
      7 N1          0.7440   -4.2130    3.7910 n         1 MOL     -0.594732
      8 C3          1.6390   -4.0550    2.6270 c3        1 MOL      0.376100
      9 C4          1.2200   -4.9790    1.4930 c         1 MOL      0.396120
     10 O2          1.0450   -6.1500    1.7730 o         1 MOL     -0.585331
     11 C5          3.1090   -4.2010    2.8280 c3        1 MOL     -0.575289
     12 C6          4.0120   -3.5050    1.7920 c         1 MOL      0.836851
     13 O3          5.2590   -3.4660    1.9780 o         1 MOL     -0.691483
     14 O4          3.5490   -2.9130    0.7670 o         1 MOL     -0.691483
     15 H4          0.3490   -5.1230    3.9810 hn        1 MOL      0.295333
     16 H5          1.4800   -3.0520    2.2390 h1        1 MOL      0.133631
     17 H6          3.3890   -5.2510    2.7570 hc        1 MOL      0.130757
     18 H7          3.3620   -3.6200    3.7110 hc        1 MOL      0.130757
     19 N2          1.0460   -4.4820    0.2760 n         1 MOL     -0.052370
     20 C7          0.6890   -5.1950   -0.9520 c3        1 MOL     -0.156085
     21 C8          1.4980   -4.8950   -2.1660 c         1 MOL      0.519598
     22 O5          1.0920   -5.2690   -3.2420 o         1 MOL     -0.530554
     23 C9         -0.8490   -5.1410   -1.1980 c3        1 MOL      0.232876
     24 C10        -1.3120   -3.7830   -1.7770 c3        1 MOL     -0.166776
     25 C11        -1.6620   -5.4640    0.1250 c3        1 MOL     -0.219438
     26 C12        -2.7820   -3.6120   -2.0750 c3        1 MOL     -0.170440
     27 H8          1.2530   -3.5100    0.1000 hn        1 MOL      0.161757
     28 H9          0.8860   -6.2510   -0.7390 h1        1 MOL      0.071109
     29 H10        -1.0070   -5.9300   -1.9310 hc        1 MOL     -0.022402
     30 H11        -0.7050   -3.3780   -2.5790 hc        1 MOL      0.052823
     31 H12        -1.0850   -3.0060   -1.0480 hc        1 MOL      0.052823
     32 H13        -1.2620   -6.3660    0.5780 hc        1 MOL      0.044366
     33 H14        -1.5690   -4.6390    0.8360 hc        1 MOL      0.044366
     34 H15        -2.6800   -5.7410   -0.1550 hc        1 MOL      0.044366
     35 H16        -3.3550   -4.4090   -1.6110 hc        1 MOL      0.080013
     36 H17        -3.0220   -2.5920   -1.7550 hc        1 MOL      0.080013
     37 H18        -2.8960   -3.6050   -3.1600 hc        1 MOL      0.080013
     38 N3          2.6340   -4.1790   -1.9830 n         1 MOL     -0.293659
     39 C13         3.4540   -3.8060   -3.1160 c3        1 MOL     -0.078035
     40 C14         4.9170   -3.4000   -2.7260 c         1 MOL      0.379034
     41 O6          5.7260   -3.1160   -3.6780 o         1 MOL     -0.563354
     42 C15         2.9040   -2.6310   -3.9400 c3        1 MOL     -0.083973
     43 C16         2.5270   -1.4430   -3.0770 c         1 MOL      0.798488
     44 O7          3.2600   -1.0730   -2.1210 o         1 MOL     -0.699985
     45 O8          1.5060   -0.8170   -3.4950 o         1 MOL     -0.699985
     46 H19         2.7580   -3.7640   -1.0670 hn        1 MOL      0.035108
     47 H20         3.5040   -4.6010   -3.8500 h1        1 MOL      0.109035
     48 H21         1.9930   -2.8560   -4.4910 hc        1 MOL      0.040059
     49 H22         3.5640   -2.2070   -4.7050 hc        1 MOL      0.040059
     50 N4          5.2440   -3.1530   -1.4780 n         1 MOL     -0.245933
     51 C17         6.5960   -2.7550   -0.9590 c3        1 MOL     -0.008616
     52 C18         7.0850   -1.3570   -1.3780 c         1 MOL      0.429142
     53 O9          8.2480   -1.1880   -1.5280 o         1 MOL     -0.588485
     54 H23         4.5720   -3.3390   -0.7490 hn        1 MOL      0.228551
     55 H24         7.3410   -3.5120   -1.1900 h1        1 MOL      0.056148
     56 H25         6.4280   -2.8870    0.1050 h1        1 MOL      0.056148
     57 N5          6.2170   -0.4890   -1.8900 n         1 MOL     -0.034433
     58 C19         6.5800    0.8140   -2.5170 c3        1 MOL     -0.051412
     59 C20         7.1920    1.7920   -1.4180 c         1 MOL      0.386756
     60 O10         7.7830    2.8330   -1.7170 o         1 MOL     -0.526393
     61 C21         5.3420    1.5200   -3.2190 c3        1 MOL     -0.251795
     62 C22         4.1770    1.7420   -2.2380 c         1 MOL      0.833508
     63 O11         4.1240    1.3570   -1.0850 o         1 MOL     -0.739044
     64 O12         3.2170    2.3380   -2.7450 o         1 MOL     -0.739044
     65 H26         5.2360   -0.7380   -1.9110 hn        1 MOL      0.100740
     66 H27         7.3340    0.7880   -3.3070 h1        1 MOL      0.089303
     67 H28         4.9790    0.9910   -4.0970 hc        1 MOL      0.077828
     68 H29         5.7740    2.4540   -3.5830 hc        1 MOL      0.077828
     69 N6          7.0970    1.4090   -0.1120 n         1 MOL     -0.081196
     70 C23         7.5060    2.2360    1.0370 c3        1 MOL     -0.483468
     71 C24         6.5370    3.3470    1.3420 c         1 MOL      0.611547
     72 O13         6.9080    4.3590    1.9620 o         1 MOL     -0.601815
     73 H30         6.5570    0.5700    0.0050 hn        1 MOL      0.127401
     74 H31         8.4670    2.7270    0.8680 h1        1 MOL      0.180231
     75 H32         7.4760    1.5960    1.9120 h1        1 MOL      0.180231
     76 N7          5.3030    3.2000    0.8990 n         1 MOL     -0.238720
     77 C25         4.0860    4.0140    1.2960 c3        1 MOL     -0.133846
     78 C26         2.9340    3.1800    1.7700 c         1 MOL      0.624241
     79 O14         2.9400    1.9270    1.7710 o         1 MOL     -0.635778
     80 C27         3.5990    4.8240    0.0470 c3        1 MOL      0.292471
     81 C28         4.6780    5.7070   -0.5840 c3        1 MOL     -0.431914
     82 C29         4.1240    6.8190   -1.4970 c         1 MOL      0.706200
     83 N8          3.7360    6.6330   -2.7320 n         1 MOL     -0.765057
     84 O15         3.9470    7.9380   -1.0370 o         1 MOL     -0.603382
     85 H33         5.0630    2.4180    0.3110 hn        1 MOL      0.237281
     86 H34         4.2850    4.7170    2.0990 h1        1 MOL      0.082987
     87 H35         2.6720    5.3110    0.3500 hc        1 MOL     -0.033395
     88 H36         3.3390    4.0990   -0.7270 hc        1 MOL     -0.033395
     89 H37         5.1830    4.9810   -1.2330 hc        1 MOL      0.118927
     90 H38         5.2760    6.2090    0.1690 hc        1 MOL      0.118927
     91 H39         3.6870    5.7180   -3.1430 hn        1 MOL      0.347726
     92 H40         3.5330    7.3770   -3.3740 hn        1 MOL      0.347726
     93 N9          1.7680    3.7620    2.1080 n         1 MOL     -0.632588
     94 C30         0.4050    3.1560    2.2730 c3        1 MOL      0.198446
     95 C31        -0.6130    3.6390    1.2200 c         1 MOL      0.345245
     96 O16        -0.7910    4.8570    0.9440 o         1 MOL     -0.553787
     97 C32        -0.1090    3.3090    3.7080 c3        1 MOL      0.234577
     98 C33        -0.5880    4.6990    4.1620 c3        1 MOL     -0.282607
     99 C34        -1.2730    2.3650    3.9860 c3        1 MOL     -0.282607
    100 H41         1.7090    4.7650    2.1070 hn        1 MOL      0.320952
    101 H42         0.5700    2.0920    2.1790 h1        1 MOL      0.124861
    102 H43         0.6400    2.9770    4.4090 hc        1 MOL     -0.018057
    103 H44         0.2890    5.3460    4.0930 hc        1 MOL      0.051160
    104 H45        -1.3830    5.1200    3.5500 hc        1 MOL      0.051160
    105 H46        -1.0000    4.6410    5.1640 hc        1 MOL      0.051160
    106 H47        -1.6000    2.3130    5.0160 hc        1 MOL      0.051160
    107 H48        -2.1250    2.5560    3.3290 hc        1 MOL      0.051160
    108 H49        -0.9600    1.3570    3.6970 hc        1 MOL      0.051160
    109 N10        -1.2880    2.6830    0.6120 n         1 MOL     -0.010646
    110 C35        -2.4250    2.9870   -0.2500 c3        1 MOL      0.066352
    111 C36        -3.7840    2.7220    0.3680 c         1 MOL      0.208656
    112 O17        -3.9200    2.1380    1.4620 o         1 MOL     -0.291648
    113 C37        -2.2740    2.1910   -1.5890 c3        1 MOL     -0.258553
    114 C38        -2.5460    0.6780   -1.5590 c         1 MOL      0.661946
    115 N11        -1.5230   -0.1760   -1.7350 n         1 MOL     -0.690770
    116 O18        -3.6810    0.2060   -1.4240 o         1 MOL     -0.550019
    117 H50        -0.9470    1.7330    0.6570 hn        1 MOL      0.071952
    118 H51        -2.2720    4.0400   -0.4990 h1        1 MOL      0.073290
    119 H52        -1.2670    2.3130   -1.9680 hc        1 MOL      0.082155
    120 H53        -2.9750    2.5820   -2.3300 hc        1 MOL      0.082155
    121 H54        -0.6030    0.2260   -1.7560 hn        1 MOL      0.358127
    122 H55        -1.6640   -1.1470   -1.4820 hn        1 MOL      0.358127
    123 N12        -4.8390    3.2670   -0.2380 n         1 MOL     -0.279484
    124 C39        -6.2110    3.2490    0.3050 c3        1 MOL      0.122830
    125 C40        -6.7460    1.7880    0.6440 c         1 MOL      0.246924
    126 O19        -7.4520    1.6150    1.6260 o         1 MOL     -0.551109
    127 C41        -7.2650    3.7790   -0.6330 c3        1 MOL     -0.191500
    128 C42        -7.5400    3.0820   -1.8970 ca        1 MOL      0.139423
    129 C43        -8.5780    2.1090   -1.9200 ca        1 MOL     -0.306431
    130 C44        -6.8400    3.5230   -3.0400 ca        1 MOL     -0.306431
    131 C45        -8.9440    1.6120   -3.1870 ca        1 MOL     -0.162429
    132 C46        -7.1240    2.9020   -4.2990 ca        1 MOL     -0.162429
    133 C47        -8.2100    2.0100   -4.3620 ca        1 MOL      0.293028
    134 O20        -8.5410    1.5350   -5.5600 oh        1 MOL     -0.531869
    135 H56        -4.7390    3.6740   -1.1580 hn        1 MOL      0.213032
    136 H57        -6.2290    3.8850    1.1960 h1        1 MOL      0.062420
    137 H58        -7.0660    4.8400   -0.7990 hc        1 MOL      0.063097
    138 H59        -8.1800    3.7120   -0.0350 hc        1 MOL      0.063097
    139 H60        -9.1380    1.8080   -1.0450 ha        1 MOL      0.188790
    140 H61        -6.0520    4.2660   -2.9910 ha        1 MOL      0.188790
    141 H62        -9.8110    0.9710   -3.2830 ha        1 MOL      0.130635
    142 H63        -6.5440    3.2630   -5.1410 ha        1 MOL      0.130635
    143 H64        -9.1180    0.7600   -5.5510 ho        1 MOL      0.413778
    144 N13        -6.4000    0.7400   -0.0900 n         1 MOL      0.094229
    145 C48        -6.7650   -0.6410    0.2860 c3        1 MOL      0.005364
    146 C49        -5.8830   -1.2780    1.3820 c         1 MOL      0.294503
    147 O21        -6.3940   -2.1870    2.0870 o         1 MOL     -0.505285
    148 C50        -6.7280   -1.4820   -1.0010 c3        1 MOL      0.014535
    149 C51        -7.0990   -2.9980   -0.9820 c3        1 MOL     -0.320595
    150 C52        -6.9950   -3.4380   -2.4680 c         1 MOL      0.794703
    151 O22        -5.8880   -3.7170   -2.9700 o         1 MOL     -0.766200
    152 O23        -8.0560   -3.5680   -3.1120 o         1 MOL     -0.766200
    153 H65        -5.9080    0.9470   -0.9480 hn        1 MOL      0.147654
    154 H66        -7.7740   -0.6320    0.6990 h1        1 MOL      0.072185
    155 H67        -5.7430   -1.5020   -1.4590 hc        1 MOL      0.013400
    156 H68        -7.4900   -1.0000   -1.5980 hc        1 MOL      0.013400
    157 H69        -8.0870   -3.2910   -0.6400 hc        1 MOL      0.050048
    158 H70        -6.3930   -3.5880   -0.3910 hc        1 MOL      0.050048
    159 N14        -4.6440   -0.8250    1.5310 n         1 MOL      0.022669
    160 C53        -3.7970   -1.1850    2.7060 c3        1 MOL     -0.018087
    161 C54        -4.2460   -0.4730    4.0250 c         1 MOL      0.288807
    162 O24        -4.4600   -1.1160    5.0880 o         1 MOL     -0.538903
    163 C55        -2.3750   -0.6930    2.3250 c3        1 MOL      0.063913
    164 C56        -1.5510   -1.7140    1.4790 c3        1 MOL      0.247573
    165 C57        -0.2430   -1.0780    0.9390 c         1 MOL      0.475526
    166 O25         0.4820   -1.7650    0.1760 o         1 MOL     -0.690246
    167 O26         0.1140    0.0350    1.1910 o         1 MOL     -0.690246
    168 H71        -4.3060   -0.0490    0.9730 hn        1 MOL     -0.080533
    169 H72        -3.7980   -2.2710    2.8250 h1        1 MOL      0.072405
    170 H73        -1.7820   -0.6030    3.2400 hc        1 MOL      0.024983
    171 H74        -2.3670    0.2470    1.7650 hc        1 MOL      0.024983
    172 H75        -2.2010   -2.0620    0.6780 hc        1 MOL     -0.097428
    173 H76        -1.2320   -2.5210    2.1440 hc        1 MOL     -0.097428
    174 N15        -4.6540    0.7860    3.9500 n         1 MOL      0.026201
    175 C58        -5.1800    1.6270    5.0270 c3        1 MOL     -0.213497
    176 H77        -5.9890    2.2460    4.6410 h1        1 MOL      0.076650
    177 H78        -5.5570    0.9960    5.8310 h1        1 MOL      0.076650
    178 H79        -4.3850    2.2670    5.4100 h1        1 MOL      0.076650
    179 H80        -4.5070    1.3450    3.1160 hn        1 MOL      0.101825
    180 Ca1         2.6890   -0.3600    0.3210 Ca        1 MOL      1.757681
    181 O27         2.6130   -0.7200    2.9850 oh        1 MOL     -0.928735
    182 H81         2.8460    0.1070    3.4090 ho        1 MOL      0.436820
    183 H82         2.2230   -1.2380    3.6870 ho        1 MOL      0.436820
    184 O28         1.2710    0.8520   -1.5630 oh        1 MOL     -0.928735
    185 H83         1.4130    0.1590   -2.2090 ho        1 MOL      0.436820
    186 H84         1.7350    1.6120   -1.9200 ho        1 MOL      0.436820
    187 O29         5.2780   -0.7840    1.5260 oh        1 MOL     -0.928735
    188 H85         4.8990   -1.6570    1.5690 ho        1 MOL      0.436820
    189 H86         6.1430   -0.8620    1.9280 ho        1 MOL      0.436820
@<TRIPOS>BOND
     1    1    2 1   
     2    1    4 1   
     3    1    5 1   
     4    1    6 1   
     5    2    3 2   
     6    2    7 1   
     7    7    8 1   
     8    7   15 1   
     9    8    9 1   
    10    8   11 1   
    11    8   16 1   
    12    9   10 2   
    13    9   19 1   
    14   11   12 1   
    15   11   17 1   
    16   11   18 1   
    17   12   13 1   
    18   12   14 1   
    19   19   20 1   
    20   19   27 1   
    21   20   21 1   
    22   20   23 1   
    23   20   28 1   
    24   21   22 2   
    25   21   38 1   
    26   23   24 1   
    27   23   25 1   
    28   23   29 1   
    29   24   26 1   
    30   24   30 1   
    31   24   31 1   
    32   25   32 1   
    33   25   33 1   
    34   25   34 1   
    35   26   35 1   
    36   26   36 1   
    37   26   37 1   
    38   38   39 1   
    39   38   46 1   
    40   39   40 1   
    41   39   42 1   
    42   39   47 1   
    43   40   41 2   
    44   40   50 1   
    45   42   43 1   
    46   42   48 1   
    47   42   49 1   
    48   43   44 1   
    49   43   45 1   
    50   50   51 1   
    51   50   54 1   
    52   51   52 1   
    53   51   55 1   
    54   51   56 1   
    55   52   53 2   
    56   52   57 1   
    57   57   58 1   
    58   57   65 1   
    59   58   59 1   
    60   58   61 1   
    61   58   66 1   
    62   59   60 2   
    63   59   69 1   
    64   61   62 1   
    65   61   67 1   
    66   61   68 1   
    67   62   63 1   
    68   62   64 1   
    69   69   70 1   
    70   69   73 1   
    71   70   71 1   
    72   70   74 1   
    73   70   75 1   
    74   71   72 2   
    75   71   76 1   
    76   76   77 1   
    77   76   85 1   
    78   77   78 1   
    79   77   80 1   
    80   77   86 1   
    81   78   79 2   
    82   78   93 1   
    83   80   81 1   
    84   80   87 1   
    85   80   88 1   
    86   81   82 1   
    87   81   89 1   
    88   81   90 1   
    89   82   83 1   
    90   82   84 2   
    91   83   91 1   
    92   83   92 1   
    93   93   94 1   
    94   93  100 1   
    95   94   95 1   
    96   94   97 1   
    97   94  101 1   
    98   95   96 2   
    99   95  109 1   
   100   97   98 1   
   101   97   99 1   
   102   97  102 1   
   103   98  103 1   
   104   98  104 1   
   105   98  105 1   
   106   99  106 1   
   107   99  107 1   
   108   99  108 1   
   109  109  110 1   
   110  109  117 1   
   111  110  111 1   
   112  110  113 1   
   113  110  118 1   
   114  111  112 2   
   115  111  123 1   
   116  113  114 1   
   117  113  119 1   
   118  113  120 1   
   119  114  115 1   
   120  114  116 2   
   121  115  121 1   
   122  115  122 1   
   123  123  124 1   
   124  123  135 1   
   125  124  125 1   
   126  124  127 1   
   127  124  136 1   
   128  125  126 2   
   129  125  144 1   
   130  127  128 1   
   131  127  137 1   
   132  127  138 1   
   133  128  129 ar  
   134  128  130 ar  
   135  129  131 ar  
   136  129  139 1   
   137  130  132 ar  
   138  130  140 1   
   139  131  133 ar  
   140  131  141 1   
   141  132  133 ar  
   142  132  142 1   
   143  133  134 1   
   144  134  143 1   
   145  144  145 1   
   146  144  153 1   
   147  145  146 1   
   148  145  148 1   
   149  145  154 1   
   150  146  147 2   
   151  146  159 1   
   152  148  149 1   
   153  148  155 1   
   154  148  156 1   
   155  149  150 1   
   156  149  157 1   
   157  149  158 1   
   158  150  151 1   
   159  150  152 1   
   160  159  160 1   
   161  159  168 1   
   162  160  161 1   
   163  160  163 1   
   164  160  169 1   
   165  161  162 2   
   166  161  174 1   
   167  163  164 1   
   168  163  170 1   
   169  163  171 1   
   170  164  165 1   
   171  164  172 1   
   172  164  173 1   
   173  165  166 1   
   174  165  167 1   
   175  174  175 1   
   176  174  179 1   
   177  175  176 1   
   178  175  177 1   
   179  175  178 1   
   180  181  182 1   
   181  181  183 1   
   182  184  185 1   
   183  184  186 1   
   184  187  188 1   
   185  187  189 1   
@<TRIPOS>SUBSTRUCTURE
     1 MOL         1 TEMP              0 ****  ****    0 ROOT
