@<TRIPOS>MOLECULE
MOL
  189   185     1     0     0
SMALL
resp


@<TRIPOS>ATOM
      1 C1         -0.5980    1.8880    6.3690 c3        1 MOL     -0.248550
      2 C2         -0.7600    1.6910    4.8450 c         1 MOL      0.806421
      3 O1          0.0210    2.2400    4.1170 o         1 MOL     -0.648603
      4 H1          0.4310    2.1720    6.5920 hc        1 MOL      0.057584
      5 H2         -1.2730    2.6740    6.7080 hc        1 MOL      0.057584
      6 H3         -0.8370    0.9570    6.8830 hc        1 MOL      0.057584
      7 N1         -1.8030    0.9890    4.3960 n         1 MOL     -0.618814
      8 C3         -2.2160    0.9340    2.9900 c3        1 MOL      0.062856
      9 C4         -2.8170    2.2960    2.7240 c         1 MOL      0.517774
     10 O2         -3.8760    2.6190    3.2200 o         1 MOL     -0.552396
     11 C5         -3.2370   -0.1400    2.7780 c3        1 MOL     -0.412145
     12 C6         -3.9830   -0.1220    1.4460 c         1 MOL      0.986807
     13 O3         -5.0150   -0.7900    1.3960 o         1 MOL     -0.750824
     14 O4         -3.5580    0.5250    0.4670 o         1 MOL     -0.750824
     15 H4         -2.2670    0.2890    4.9600 hn        1 MOL      0.337818
     16 H5         -1.3190    0.9040    2.3760 h1        1 MOL      0.024941
     17 H6         -3.9550   -0.0180    3.5930 hc        1 MOL      0.105798
     18 H7         -2.6190   -1.0090    2.9970 hc        1 MOL      0.105798
     19 N2         -2.2200    3.0780    1.8290 n         1 MOL     -0.203932
     20 C7         -2.4240    4.5200    1.6740 c3        1 MOL      0.024374
     21 C8         -3.4290    4.8840    0.5720 c         1 MOL      0.427968
     22 O5         -3.8520    5.9790    0.3480 o         1 MOL     -0.558094
     23 C9         -1.0900    5.3360    1.5700 c3        1 MOL     -0.123461
     24 C10        -0.2700    5.0470    0.2630 c3        1 MOL      0.080156
     25 C11         0.8630    6.0680    0.2290 c3        1 MOL     -0.040283
     26 C12         1.9550    5.6080   -0.8340 c3        1 MOL      0.179168
     27 N3          3.0660    6.5690   -0.9170 n4        1 MOL     -0.370739
     28 H8         -1.3700    2.7820    1.3640 hn        1 MOL      0.217254
     29 H9         -2.9310    4.8940    2.5580 h1        1 MOL      0.076293
     30 H10        -0.5630    5.1530    2.4970 hc        1 MOL      0.046932
     31 H11        -1.4240    6.3750    1.6220 hc        1 MOL      0.046932
     32 H12        -0.9220    5.0460   -0.6170 hc        1 MOL      0.024566
     33 H13         0.2730    4.0980    0.2730 hc        1 MOL      0.024566
     34 H14         1.3690    6.1720    1.1950 hc        1 MOL      0.019135
     35 H15         0.5260    7.0320   -0.1620 hc        1 MOL      0.019135
     36 H16         1.4190    5.5370   -1.7890 hx        1 MOL      0.017717
     37 H17         2.3170    4.6420   -0.5010 hx        1 MOL      0.017717
     38 H18         3.4130    6.9030   -0.0250 hn        1 MOL      0.319157
     39 H19         3.8170    6.1830   -1.4520 hn        1 MOL      0.319157
     40 H20         2.7820    7.3870   -1.4280 hn        1 MOL      0.319157
     41 N4         -3.8050    3.8630   -0.1820 n         1 MOL     -0.255936
     42 C13        -4.8250    4.0610   -1.3030 c3        1 MOL     -0.009323
     43 C14        -6.0100    3.0960   -1.1270 c         1 MOL      0.499833
     44 O6         -6.9580    3.2160   -1.8540 o         1 MOL     -0.524903
     45 C15        -4.1560    4.0750   -2.6750 c3        1 MOL     -0.129741
     46 C16        -3.1770    2.8900   -2.8850 c         1 MOL      0.705201
     47 O7         -2.7530    2.7430   -4.0380 o         1 MOL     -0.698057
     48 O8         -2.8480    2.2000   -1.8900 o         1 MOL     -0.698057
     49 H21        -3.2830    3.0020   -0.1240 hn        1 MOL      0.169105
     50 H22        -5.2490    5.0650   -1.2740 h1        1 MOL      0.098895
     51 H23        -3.5750    4.9880   -2.7900 hc        1 MOL      0.045239
     52 H24        -4.8550    4.0210   -3.5140 hc        1 MOL      0.045239
     53 N5         -5.9570    2.2040   -0.0620 n         1 MOL     -0.347961
     54 C17        -7.1180    1.3420    0.4510 c3        1 MOL     -0.065137
     55 C18        -7.4340    0.2270   -0.4980 c         1 MOL      0.420204
     56 O9         -8.5790   -0.2050   -0.6370 o         1 MOL     -0.575584
     57 H25        -5.1050    2.1620    0.4810 hn        1 MOL      0.174704
     58 H26        -7.9660    1.9540    0.7670 h1        1 MOL      0.101119
     59 H27        -6.8000    0.9260    1.4030 h1        1 MOL      0.101119
     60 N6         -6.4170   -0.3000   -1.1920 n         1 MOL     -0.083347
     61 C19        -6.7100   -1.3360   -2.1510 c3        1 MOL     -0.063460
     62 C20        -6.7560   -2.7270   -1.5020 c         1 MOL      0.440201
     63 O10        -7.0580   -3.6020   -2.2630 o         1 MOL     -0.531213
     64 C21        -5.5950   -1.3280   -3.1930 c3        1 MOL     -0.164755
     65 C22        -4.1640   -1.2130   -2.6820 c         1 MOL      0.708688
     66 O11        -3.4510   -0.4230   -3.2910 o         1 MOL     -0.688498
     67 O12        -3.8140   -1.7440   -1.6380 o         1 MOL     -0.688498
     68 H28        -5.4880    0.0230   -0.9670 hn        1 MOL      0.157696
     69 H29        -7.6360   -1.0810   -2.6690 h1        1 MOL      0.141242
     70 H30        -5.8850   -0.4260   -3.7360 hc        1 MOL      0.047063
     71 H31        -5.6750   -2.0880   -3.9580 hc        1 MOL      0.047063
     72 N7         -6.4890   -2.9030   -0.1870 n         1 MOL     -0.237520
     73 C23        -6.5630   -4.1710    0.5320 c3        1 MOL     -0.111749
     74 C24        -5.1330   -4.7540    0.6660 c         1 MOL      0.471721
     75 O13        -5.1220   -5.9390    0.9580 o         1 MOL     -0.552460
     76 H32        -6.2720   -2.0800    0.3570 hn        1 MOL      0.251744
     77 H33        -7.1000   -4.9080   -0.0680 h1        1 MOL      0.103011
     78 H34        -7.1680   -4.0760    1.4370 h1        1 MOL      0.103011
     79 N8         -4.0390   -4.0420    0.3930 n         1 MOL     -0.159970
     80 C25        -2.6340   -4.5000    0.5680 c3        1 MOL     -0.258715
     81 C26        -1.5420   -3.4700    0.7320 c         1 MOL      0.839300
     82 O14        -1.7680   -2.2650    0.5410 o         1 MOL     -0.696311
     83 C27        -2.2540   -5.1900   -0.7780 c3        1 MOL      0.440868
     84 C28        -2.8270   -6.5340   -0.9400 c3        1 MOL     -0.474412
     85 O15        -2.6100   -4.4030   -1.9070 oh        1 MOL     -0.599607
     86 H35        -4.1980   -3.1140    0.0380 hn        1 MOL      0.132216
     87 H36        -2.5560   -5.0740    1.4870 h1        1 MOL      0.129571
     88 H37        -1.1770   -5.3130   -0.9070 h1        1 MOL      0.010573
     89 H38        -3.3760   -3.8910   -1.6630 ho        1 MOL      0.399518
     90 H39        -2.5790   -7.0690   -0.0290 hc        1 MOL      0.120519
     91 H40        -3.9080   -6.5400   -1.1080 hc        1 MOL      0.120519
     92 H41        -2.3500   -6.9740   -1.8140 hc        1 MOL      0.120519
     93 N9         -0.3370   -3.8970    1.1820 n         1 MOL     -0.802076
     94 C29         0.7470   -2.9460    1.4590 c3        1 MOL      0.202851
     95 C30         1.9710   -3.3230    0.5710 c         1 MOL      0.441251
     96 O16         2.4530   -4.4780    0.6640 o         1 MOL     -0.529915
     97 C31         1.0830   -2.9240    3.0040 c3        1 MOL      0.050184
     98 C32        -0.1430   -2.2520    3.6800 c3        1 MOL      0.169779
     99 C33         2.3680   -2.3160    3.4800 c3        1 MOL     -0.285054
    100 C34        -0.1900   -2.1730    5.1190 c3        1 MOL     -0.053478
    101 H42        -0.2580   -4.8360    1.5370 hn        1 MOL      0.348701
    102 H43         0.5390   -1.9250    1.1290 h1        1 MOL      0.098178
    103 H44         1.1150   -3.9840    3.2810 hc        1 MOL      0.027595
    104 H45        -1.0530   -2.7940    3.4040 hc        1 MOL     -0.027443
    105 H46        -0.1850   -1.2280    3.3170 hc        1 MOL     -0.027443
    106 H47         2.6220   -2.7510    4.4420 hc        1 MOL      0.064089
    107 H48         3.2420   -2.4070    2.8260 hc        1 MOL      0.064089
    108 H49         2.2130   -1.2480    3.6450 hc        1 MOL      0.064089
    109 H50         0.5540   -1.4920    5.5130 hc        1 MOL     -0.005846
    110 H51        -1.1480   -1.7850    5.4810 hc        1 MOL     -0.005846
    111 H52         0.0140   -3.1640    5.5440 hc        1 MOL     -0.005846
    112 N10         2.5110   -2.2750   -0.0400 n         1 MOL     -0.158381
    113 C35         3.6960   -2.4140   -0.9480 c3        1 MOL     -0.052515
    114 C36         5.0010   -2.4060   -0.1790 c         1 MOL      0.235844
    115 O17         5.0710   -1.8210    0.9110 o         1 MOL     -0.140296
    116 C37         3.6730   -1.5760   -2.1770 c3        1 MOL      0.186753
    117 C38         2.6630   -2.1180   -3.2730 c3        1 MOL     -0.094085
    118 O18         3.3050   -0.2580   -1.7760 oh        1 MOL     -0.707181
    119 H53         2.0030   -1.4080   -0.1150 hn        1 MOL      0.114325
    120 H54         3.4910   -3.4480   -1.2200 h1        1 MOL      0.070159
    121 H55         4.6510   -1.4220   -2.6420 h1        1 MOL      0.054275
    122 H56         2.3480   -0.2150   -1.6730 ho        1 MOL      0.494758
    123 H57         1.5980   -2.1570   -3.0490 hc        1 MOL      0.035705
    124 H58         2.8980   -1.5460   -4.1690 hc        1 MOL      0.035705
    125 H59         3.0510   -3.0900   -3.5560 hc        1 MOL      0.035705
    126 N11         6.1040   -2.7530   -0.8550 n         1 MOL     -0.293202
    127 C39         7.4480   -2.4180   -0.4020 c3        1 MOL     -0.071317
    128 C40         7.6560   -0.9400   -0.1140 c         1 MOL      0.348628
    129 O19         8.3570   -0.5090    0.8260 o         1 MOL     -0.477049
    130 C41         8.5630   -2.7640   -1.4100 c3        1 MOL      0.297212
    131 C42         8.8210   -4.2370   -1.6370 c3        1 MOL     -0.269536
    132 O20         8.4210   -2.1630   -2.6970 oh        1 MOL     -0.678263
    133 H60         5.9350   -3.1590   -1.7650 hn        1 MOL      0.298484
    134 H61         7.7840   -2.8720    0.5280 h1        1 MOL      0.122156
    135 H62         9.4800   -2.2510   -1.1050 h1        1 MOL      0.040264
    136 H63         9.2960   -1.9730   -3.0380 ho        1 MOL      0.420485
    137 H64         7.9030   -4.8050   -1.7950 hc        1 MOL      0.079958
    138 H65         9.4280   -4.4010   -2.5290 hc        1 MOL      0.079958
    139 H66         9.2840   -4.6810   -0.7640 hc        1 MOL      0.079958
    140 N12         7.0080   -0.0730   -0.8920 n         1 MOL     -0.162088
    141 C43         7.0210    1.3550   -0.6100 c3        1 MOL     -0.196642
    142 C44         6.1900    1.6880    0.6500 c         1 MOL      0.440107
    143 O21         6.5760    2.5350    1.4470 o         1 MOL     -0.522193
    144 C45         6.7550    2.2380   -1.8200 c3        1 MOL     -0.082528
    145 C46         5.4370    1.9270   -2.5110 c3        1 MOL      0.013979
    146 C47         5.2470    2.8920   -3.6840 c3        1 MOL      0.128807
    147 C48         6.1360    2.6690   -4.9570 c3        1 MOL     -0.055204
    148 N13         5.8420    1.3320   -5.5120 n4        1 MOL     -0.172857
    149 H67         6.4080   -0.3670   -1.6450 hn        1 MOL      0.146859
    150 H68         8.0610    1.5380   -0.3370 h1        1 MOL      0.166347
    151 H69         7.6270    2.2450   -2.4740 hc        1 MOL      0.049538
    152 H70         6.6810    3.2290   -1.3710 hc        1 MOL      0.049538
    153 H71         4.5600    2.0340   -1.8770 hc        1 MOL     -0.020912
    154 H72         5.4410    0.9100   -2.8900 hc        1 MOL     -0.020912
    155 H73         5.3950    3.9420   -3.4370 hc        1 MOL     -0.005099
    156 H74         4.2240    2.9150   -4.0560 hc        1 MOL     -0.005099
    157 H75         7.1470    2.7530   -4.5350 hx        1 MOL      0.087847
    158 H76         5.8500    3.4220   -5.6880 hx        1 MOL      0.087847
    159 H77         4.8560    1.2370   -5.7100 hn        1 MOL      0.262845
    160 H78         6.3380    1.1670   -6.3760 hn        1 MOL      0.262845
    161 H79         6.1520    0.4970   -5.0300 hn        1 MOL      0.262845
    162 N14         5.0310    1.1030    0.9190 n         1 MOL      0.018860
    163 C49         4.1650    1.4130    2.0610 c3        1 MOL     -0.283878
    164 C50         4.7770    0.7680    3.3540 c         1 MOL      0.491207
    165 O22         4.8460    1.3500    4.4640 o         1 MOL     -0.554724
    166 C51         2.6580    0.9300    1.8070 c3        1 MOL     -0.001605
    167 C52         1.9830    1.8240    0.7760 c3        1 MOL     -0.013501
    168 C53         0.7590    1.1580    0.1600 c         1 MOL      0.726857
    169 O23         0.9420    0.1090   -0.5060 o         1 MOL     -0.779517
    170 O24        -0.3820    1.6570    0.2100 o         1 MOL     -0.779517
    171 H80         4.7380    0.3930    0.2670 hn        1 MOL      0.113022
    172 H81         4.1260    2.4910    2.2000 h1        1 MOL      0.124176
    173 H82         2.0030    0.9520    2.6790 hc        1 MOL      0.073367
    174 H83         2.6670   -0.1150    1.5270 hc        1 MOL      0.073367
    175 H84         2.6370    2.1120   -0.0430 hc        1 MOL      0.015801
    176 H85         1.7360    2.7910    1.2150 hc        1 MOL      0.015801
    177 N15         5.3930   -0.3930    3.1880 n         1 MOL      0.050661
    178 C54         6.3020   -1.0570    4.1470 c3        1 MOL     -0.342417
    179 H86         7.3350   -0.8330    3.8830 h1        1 MOL      0.125130
    180 H87         6.0980   -0.6920    5.1540 h1        1 MOL      0.125130
    181 H88         6.1440   -2.1350    4.1110 h1        1 MOL      0.125130
    182 H89         5.0940   -0.8400    2.3300 hn        1 MOL     -0.101651
    183 Ca1        -1.7830   -0.0400   -1.2810 Ca        1 MOL      1.817383
    184 O25        -0.9420   -2.1660   -2.7170 oh        1 MOL     -0.893141
    185 H90        -0.8340   -2.3330   -3.6530 ho        1 MOL      0.400698
    186 H91        -1.3290   -2.9740   -2.3780 ho        1 MOL      0.400698
    187 O26        -0.6600    1.1420   -3.3220 oh        1 MOL     -0.893141
    188 H92        -1.4300    1.6860   -3.5000 ho        1 MOL      0.400698
    189 H93        -0.0300    1.3960   -3.9960 ho        1 MOL      0.400698
@<TRIPOS>BOND
     1    1    2 1   
     2    1    4 1   
     3    1    5 1   
     4    1    6 1   
     5    2    3 2   
     6    2    7 1   
     7    7    8 1   
     8    7   15 1   
     9    8    9 1   
    10    8   11 1   
    11    8   16 1   
    12    9   10 2   
    13    9   19 1   
    14   11   12 1   
    15   11   17 1   
    16   11   18 1   
    17   12   13 1   
    18   12   14 1   
    19   19   20 1   
    20   19   28 1   
    21   20   21 1   
    22   20   23 1   
    23   20   29 1   
    24   21   22 2   
    25   21   41 1   
    26   23   24 1   
    27   23   30 1   
    28   23   31 1   
    29   24   25 1   
    30   24   32 1   
    31   24   33 1   
    32   25   26 1   
    33   25   34 1   
    34   25   35 1   
    35   26   27 1   
    36   26   36 1   
    37   26   37 1   
    38   27   38 1   
    39   27   39 1   
    40   27   40 1   
    41   41   42 1   
    42   41   49 1   
    43   42   43 1   
    44   42   45 1   
    45   42   50 1   
    46   43   44 2   
    47   43   53 1   
    48   45   46 1   
    49   45   51 1   
    50   45   52 1   
    51   46   47 1   
    52   46   48 1   
    53   53   54 1   
    54   53   57 1   
    55   54   55 1   
    56   54   58 1   
    57   54   59 1   
    58   55   56 2   
    59   55   60 1   
    60   60   61 1   
    61   60   68 1   
    62   61   62 1   
    63   61   64 1   
    64   61   69 1   
    65   62   63 2   
    66   62   72 1   
    67   64   65 1   
    68   64   70 1   
    69   64   71 1   
    70   65   66 1   
    71   65   67 1   
    72   72   73 1   
    73   72   76 1   
    74   73   74 1   
    75   73   77 1   
    76   73   78 1   
    77   74   75 2   
    78   74   79 1   
    79   79   80 1   
    80   79   86 1   
    81   80   81 1   
    82   80   83 1   
    83   80   87 1   
    84   81   82 2   
    85   81   93 1   
    86   83   84 1   
    87   83   85 1   
    88   83   88 1   
    89   84   90 1   
    90   84   91 1   
    91   84   92 1   
    92   85   89 1   
    93   93   94 1   
    94   93  101 1   
    95   94   95 1   
    96   94   97 1   
    97   94  102 1   
    98   95   96 2   
    99   95  112 1   
   100   97   98 1   
   101   97   99 1   
   102   97  103 1   
   103   98  100 1   
   104   98  104 1   
   105   98  105 1   
   106   99  106 1   
   107   99  107 1   
   108   99  108 1   
   109  100  109 1   
   110  100  110 1   
   111  100  111 1   
   112  112  113 1   
   113  112  119 1   
   114  113  114 1   
   115  113  116 1   
   116  113  120 1   
   117  114  115 2   
   118  114  126 1   
   119  116  117 1   
   120  116  118 1   
   121  116  121 1   
   122  117  123 1   
   123  117  124 1   
   124  117  125 1   
   125  118  122 1   
   126  126  127 1   
   127  126  133 1   
   128  127  128 1   
   129  127  130 1   
   130  127  134 1   
   131  128  129 2   
   132  128  140 1   
   133  130  131 1   
   134  130  132 1   
   135  130  135 1   
   136  131  137 1   
   137  131  138 1   
   138  131  139 1   
   139  132  136 1   
   140  140  141 1   
   141  140  149 1   
   142  141  142 1   
   143  141  144 1   
   144  141  150 1   
   145  142  143 2   
   146  142  162 1   
   147  144  145 1   
   148  144  151 1   
   149  144  152 1   
   150  145  146 1   
   151  145  153 1   
   152  145  154 1   
   153  146  147 1   
   154  146  155 1   
   155  146  156 1   
   156  147  148 1   
   157  147  157 1   
   158  147  158 1   
   159  148  159 1   
   160  148  160 1   
   161  148  161 1   
   162  162  163 1   
   163  162  171 1   
   164  163  164 1   
   165  163  166 1   
   166  163  172 1   
   167  164  165 2   
   168  164  177 1   
   169  166  167 1   
   170  166  173 1   
   171  166  174 1   
   172  167  168 1   
   173  167  175 1   
   174  167  176 1   
   175  168  169 1   
   176  168  170 1   
   177  177  178 1   
   178  177  182 1   
   179  178  179 1   
   180  178  180 1   
   181  178  181 1   
   182  184  185 1   
   183  184  186 1   
   184  187  188 1   
   185  187  189 1   
@<TRIPOS>SUBSTRUCTURE
     1 MOL         1 TEMP              0 ****  ****    0 ROOT
