@<TRIPOS>MOLECULE
MOL
  189   185     1     0     0
SMALL
resp


@<TRIPOS>ATOM
      1 C1         -0.6390    2.9820    5.7970 c3        1 MOL     -0.281015
      2 C2         -0.8620    2.6280    4.3600 c         1 MOL      0.835263
      3 O1         -0.0230    2.7200    3.4700 o         1 MOL     -0.718881
      4 H1         -1.1600    3.9120    6.0270 hc        1 MOL      0.068252
      5 H2         -1.0240    2.1840    6.4330 hc        1 MOL      0.068252
      6 H3          0.4280    3.1090    5.9790 hc        1 MOL      0.068252
      7 N1         -2.1100    2.1680    4.0960 n         1 MOL     -0.747965
      8 C3         -2.5680    1.8810    2.7140 c3        1 MOL      0.187974
      9 C4         -2.8830    3.2830    2.1520 c         1 MOL      0.576762
     10 O2         -3.8180    3.9820    2.5020 o         1 MOL     -0.562905
     11 C5         -3.7120    0.8110    2.7210 c3        1 MOL     -0.348102
     12 C6         -4.1370    0.3370    1.3240 c         1 MOL      0.920772
     13 O3         -3.6440    0.8740    0.3310 o         1 MOL     -0.741791
     14 O4         -5.0860   -0.4850    1.1390 o         1 MOL     -0.741791
     15 H4         -2.7680    1.9320    4.8300 hn        1 MOL      0.370561
     16 H5         -1.6620    1.4710    2.2750 h1        1 MOL      0.057830
     17 H6         -4.4510    1.4040    3.2530 hc        1 MOL      0.081677
     18 H7         -3.3720   -0.0660    3.2640 hc        1 MOL      0.081677
     19 N2         -2.1100    3.6790    1.1610 n         1 MOL     -0.288466
     20 C7         -2.1290    5.0210    0.5460 c3        1 MOL     -0.144518
     21 C8         -3.1650    5.1700   -0.5440 c         1 MOL      0.534745
     22 O5         -3.6860    6.2840   -0.6520 o         1 MOL     -0.586835
     23 C9         -0.7270    5.3100    0.0390 c3        1 MOL     -0.141196
     24 C10         0.3500    5.2510    1.0490 c3        1 MOL      0.098213
     25 C11         1.7540    5.6320    0.5200 c3        1 MOL     -0.325682
     26 C12         2.8860    5.4330    1.4700 c3        1 MOL      0.053115
     27 N3          2.8500    6.3520    2.5720 n4        1 MOL     -0.423109
     28 H8         -1.4350    3.0160    0.8080 hn        1 MOL      0.194911
     29 H9         -2.3570    5.7270    1.3470 h1        1 MOL      0.105633
     30 H10        -0.6930    6.3130   -0.4040 hc        1 MOL      0.076191
     31 H11        -0.4630    4.6390   -0.7760 hc        1 MOL      0.076191
     32 H12         0.4960    4.2860    1.5380 hc        1 MOL      0.026873
     33 H13         0.1240    5.8690    1.9170 hc        1 MOL      0.026873
     34 H14         1.7910    6.6080    0.0360 hc        1 MOL      0.099482
     35 H15         1.8870    4.9430   -0.3140 hc        1 MOL      0.099482
     36 H16         3.8020    5.7690    0.9890 hx        1 MOL      0.127297
     37 H17         2.9020    4.4100    1.8410 hx        1 MOL      0.127297
     38 H18         2.1010    6.0730    3.2000 hn        1 MOL      0.340841
     39 H19         3.7110    6.2920    3.1030 hn        1 MOL      0.340841
     40 H20         2.7360    7.3030    2.2670 hn        1 MOL      0.340841
     41 N4         -3.4510    4.1730   -1.2910 n         1 MOL     -0.248469
     42 C13        -4.2090    4.1480   -2.5290 c3        1 MOL     -0.079600
     43 C14        -5.5010    3.3150   -2.3930 c         1 MOL      0.511666
     44 O6         -6.4300    3.4980   -3.1410 o         1 MOL     -0.527783
     45 C15        -3.3170    3.6440   -3.6360 c3        1 MOL      0.007087
     46 C16        -2.7130    2.2380   -3.5270 c         1 MOL      0.700713
     47 O7         -2.1630    1.6900   -4.5490 o         1 MOL     -0.702934
     48 O8         -2.7130    1.7210   -2.4170 o         1 MOL     -0.702934
     49 H21        -2.9280    3.3150   -1.1580 hn        1 MOL      0.233992
     50 H22        -4.5340    5.1450   -2.8140 h1        1 MOL      0.090445
     51 H23        -2.3990    4.2290   -3.6780 hc        1 MOL     -0.001009
     52 H24        -3.7410    3.7500   -4.6300 hc        1 MOL     -0.001009
     53 N5         -5.5940    2.4930   -1.3400 n         1 MOL     -0.137743
     54 C17        -6.8710    1.7810   -0.9450 c3        1 MOL     -0.343292
     55 C18        -7.2110    0.5660   -1.7560 c         1 MOL      0.655019
     56 O9         -8.0780    0.6150   -2.6770 o         1 MOL     -0.544886
     57 H25        -4.8640    2.5730   -0.6460 hn        1 MOL      0.174453
     58 H26        -7.6530    2.5270   -0.8410 h1        1 MOL      0.137206
     59 H27        -6.7860    1.5140    0.1040 h1        1 MOL      0.137206
     60 N6         -6.6700   -0.5630   -1.3700 n         1 MOL     -0.387619
     61 C19        -6.9510   -1.9370   -1.8590 c3        1 MOL      0.046675
     62 C20        -7.1120   -2.8940   -0.7150 c         1 MOL      0.460591
     63 O10        -7.5880   -3.9920   -0.9950 o         1 MOL     -0.556108
     64 C21        -5.8330   -2.3440   -2.8490 c3        1 MOL     -0.051825
     65 C22        -4.4500   -2.0070   -2.3460 c         1 MOL      0.696921
     66 O11        -3.6950   -1.3950   -3.1370 o         1 MOL     -0.720159
     67 O12        -4.0670   -2.3180   -1.2150 o         1 MOL     -0.720159
     68 H28        -5.9880   -0.4950   -0.6340 hn        1 MOL      0.122506
     69 H29        -7.8400   -1.8850   -2.4840 h1        1 MOL      0.079049
     70 H30        -5.9890   -1.7900   -3.7700 hc        1 MOL      0.035178
     71 H31        -5.9120   -3.3960   -3.1060 hc        1 MOL      0.035178
     72 N7         -6.7810   -2.5240    0.4790 n         1 MOL     -0.341216
     73 C23        -6.7100   -3.5290    1.6050 c3        1 MOL     -0.039615
     74 C24        -5.3370   -4.2800    1.7660 c         1 MOL      0.427500
     75 O13        -5.3750   -5.3250    2.4190 o         1 MOL     -0.539772
     76 H32        -6.4380   -1.5950    0.6550 hn        1 MOL      0.292339
     77 H33        -7.3970   -4.3650    1.4850 h1        1 MOL      0.083811
     78 H34        -7.0250   -3.0260    2.5150 h1        1 MOL      0.083811
     79 N8         -4.2350   -3.7510    1.1910 n         1 MOL     -0.108375
     80 C25        -2.8280   -4.2440    1.1570 c3        1 MOL     -0.275150
     81 C26        -1.7320   -3.1540    1.2230 c         1 MOL      0.766422
     82 O14        -1.9160   -1.9850    0.8510 o         1 MOL     -0.675324
     83 C27        -2.5720   -5.2480    0.0220 c3        1 MOL      0.462875
     84 C28        -3.5760   -6.4430   -0.1180 c3        1 MOL     -0.510403
     85 O15        -2.5390   -4.5310   -1.1740 oh        1 MOL     -0.647306
     86 H35        -4.2830   -2.8410    0.7540 hn        1 MOL      0.140512
     87 H36        -2.8080   -4.8420    2.0700 h1        1 MOL      0.068171
     88 H37        -1.6030   -5.6930    0.2470 h1        1 MOL     -0.012219
     89 H38        -3.2250   -3.8630   -1.1650 ho        1 MOL      0.428505
     90 H39        -4.5310   -6.0310   -0.4590 hc        1 MOL      0.139772
     91 H40        -3.2520   -7.1910   -0.8420 hc        1 MOL      0.139772
     92 H41        -3.7830   -6.9090    0.8430 hc        1 MOL      0.139772
     93 N9         -0.5720   -3.6010    1.6640 n         1 MOL     -0.603695
     94 C29         0.6210   -2.8010    1.9060 c3        1 MOL      0.077517
     95 C30         1.7080   -3.3050    0.9210 c         1 MOL      0.601334
     96 O16         2.0600   -4.4600    1.0490 o         1 MOL     -0.549973
     97 C31         0.9650   -2.7130    3.4460 c3        1 MOL     -0.010921
     98 C32         0.0520   -1.6930    4.1470 c3        1 MOL      0.224892
     99 C33         2.3970   -2.2700    3.8230 c3        1 MOL     -0.314834
    100 C34         0.0540   -1.8820    5.6160 c3        1 MOL     -0.239643
    101 H42        -0.5290   -4.5740    1.9500 hn        1 MOL      0.324283
    102 H43         0.4850   -1.7650    1.6050 h1        1 MOL      0.032120
    103 H44         0.7450   -3.6880    3.8660 hc        1 MOL      0.042351
    104 H45        -0.9670   -1.8980    3.8180 hc        1 MOL     -0.010430
    105 H46         0.3200   -0.6780    3.8460 hc        1 MOL     -0.010430
    106 H47         2.5740   -1.2560    3.4520 hc        1 MOL      0.072147
    107 H48         2.6340   -2.2120    4.8930 hc        1 MOL      0.072147
    108 H49         3.1050   -2.9890    3.4140 hc        1 MOL      0.072147
    109 H50        -0.1760   -2.9040    5.9310 hc        1 MOL      0.051040
    110 H51         0.9880   -1.4980    6.0220 hc        1 MOL      0.051040
    111 H52        -0.7500   -1.2540    5.9980 hc        1 MOL      0.051040
    112 N10         2.1000   -2.5400   -0.1300 n         1 MOL     -0.329081
    113 C35         3.3630   -2.8120   -0.8330 c3        1 MOL     -0.044830
    114 C36         4.5910   -2.3490   -0.1530 c         1 MOL      0.285314
    115 O17         4.5820   -1.6140    0.8380 o         1 MOL     -0.188408
    116 C37         3.2960   -2.0040   -2.1860 c3        1 MOL      0.232213
    117 C38         2.5560   -2.8980   -3.0980 c3        1 MOL     -0.461949
    118 O18         2.9850   -0.6320   -2.0290 oh        1 MOL     -0.466483
    119 H53         1.7630   -1.5970   -0.2310 hn        1 MOL      0.175083
    120 H54         3.3850   -3.8880   -1.0370 h1        1 MOL      0.118407
    121 H55         4.2650   -1.8410   -2.6640 h1        1 MOL      0.023260
    122 H56         2.0220   -0.6180   -1.9620 ho        1 MOL      0.326821
    123 H57         3.0840   -3.8330   -3.2600 hc        1 MOL      0.134797
    124 H58         1.5850   -3.1580   -2.6750 hc        1 MOL      0.134797
    125 H59         2.5030   -2.3440   -4.0330 hc        1 MOL      0.134797
    126 N11         5.8310   -2.8280   -0.5660 n         1 MOL     -0.412469
    127 C39         7.1140   -2.3200    0.0420 c3        1 MOL     -0.028710
    128 C40         7.2060   -0.7530    0.0070 c         1 MOL      0.282661
    129 O19         7.8460   -0.2000    0.8800 o         1 MOL     -0.498912
    130 C41         8.3990   -2.8570   -0.5760 c3        1 MOL      0.368809
    131 C42         8.7540   -4.2970   -0.2440 c3        1 MOL     -0.505364
    132 O20         8.4120   -2.7610   -1.9350 oh        1 MOL     -0.605404
    133 H60         5.7970   -3.5120   -1.3000 hn        1 MOL      0.296836
    134 H61         7.1180   -2.5580    1.1090 h1        1 MOL      0.148518
    135 H62         9.1010   -2.1660   -0.1050 h1        1 MOL      0.009560
    136 H63         9.0820   -2.1230   -2.1850 ho        1 MOL      0.378370
    137 H64         9.8000   -4.5170   -0.4000 hc        1 MOL      0.143843
    138 H65         8.4680   -4.4160    0.8000 hc        1 MOL      0.143843
    139 H66         8.1480   -4.9590   -0.8700 hc        1 MOL      0.143843
    140 N12         6.5300   -0.0520   -0.8610 n         1 MOL     -0.017715
    141 C43         6.4280    1.4280   -0.9510 c3        1 MOL     -0.073198
    142 C44         5.5240    2.0150    0.1610 c         1 MOL      0.546577
    143 O21         5.4440    3.2490    0.3760 o         1 MOL     -0.655074
    144 C45         5.8850    1.9780   -2.2860 c3        1 MOL     -0.283105
    145 C46         6.3100    1.2460   -3.5540 c3        1 MOL     -0.043406
    146 C47         7.7620    1.2690   -3.8860 c3        1 MOL      0.222058
    147 C48         8.3310    0.4620   -5.0800 c3        1 MOL     -0.003849
    148 N13         9.8190    0.5370   -5.2050 n4        1 MOL     -0.311200
    149 H67         6.0050   -0.4850   -1.6080 hn        1 MOL      0.128280
    150 H68         7.3790    1.9290   -0.7900 h1        1 MOL      0.086628
    151 H69         6.1190    3.0340   -2.3960 hc        1 MOL      0.145733
    152 H70         4.8000    1.9030   -2.2810 hc        1 MOL      0.145733
    153 H71         5.8210    1.6930   -4.4220 hc        1 MOL      0.030487
    154 H72         6.0160    0.1950   -3.4530 hc        1 MOL      0.030487
    155 H73         8.2380    0.7330   -3.0620 hc        1 MOL     -0.044713
    156 H74         8.1700    2.2810   -3.8950 hc        1 MOL     -0.044713
    157 H75         7.8930    0.8310   -6.0070 hx        1 MOL      0.076280
    158 H76         8.0010   -0.5640   -4.9220 hx        1 MOL      0.076280
    159 H77        10.1240    1.4660   -5.4740 hn        1 MOL      0.286080
    160 H78        10.2560    0.2830   -4.3340 hn        1 MOL      0.286080
    161 H79        10.1830   -0.0370   -5.9470 hn        1 MOL      0.286080
    162 N14         4.7980    1.1780    0.8040 n         1 MOL     -0.111755
    163 C49         3.7960    1.5000    1.8400 c3        1 MOL     -0.031046
    164 C50         4.1800    0.9070    3.2600 c         1 MOL      0.369323
    165 O22         3.8860    1.4900    4.2970 o         1 MOL     -0.514791
    166 C51         2.4330    0.9760    1.3510 c3        1 MOL      0.092046
    167 C52         1.7750    1.6230    0.1780 c3        1 MOL      0.004936
    168 C53         0.3780    1.0260   -0.1270 c         1 MOL      0.534708
    169 O23         0.3370   -0.1570   -0.5300 o         1 MOL     -0.610908
    170 O24        -0.5850    1.7240   -0.2860 o         1 MOL     -0.610908
    171 H80         4.8260    0.2320    0.4420 hn        1 MOL     -0.117078
    172 H81         3.6920    2.5830    1.9140 h1        1 MOL      0.058922
    173 H82         1.6680    1.2080    2.0970 hc        1 MOL      0.050504
    174 H83         2.4940   -0.1080    1.2260 hc        1 MOL      0.050504
    175 H84         2.3860    1.5490   -0.7240 hc        1 MOL     -0.010313
    176 H85         1.7340    2.6430    0.5420 hc        1 MOL     -0.010313
    177 N15         4.9520   -0.2110    3.2510 n         1 MOL     -0.008682
    178 C54         5.6000   -0.8060    4.3970 c3        1 MOL     -0.331915
    179 H86         5.8760   -1.8340    4.1640 h1        1 MOL      0.118801
    180 H87         6.4950   -0.2360    4.6450 h1        1 MOL      0.118801
    181 H88         4.9170   -0.7970    5.2460 h1        1 MOL      0.118801
    182 H89         5.0590   -0.6520    2.3470 hn        1 MOL      0.073548
    183 Ca1        -2.0110   -0.4380   -1.3910 Ca        1 MOL      1.767058
    184 O25        -0.1930    0.1490   -3.4370 oh        1 MOL     -0.789256
    185 H90         0.5970    0.0730   -3.9640 ho        1 MOL      0.370022
    186 H91        -0.7830    0.6850   -3.9700 ho        1 MOL      0.370022
    187 O26        -0.9600   -2.5760   -2.4290 oh        1 MOL     -0.789256
    188 H92        -0.5800   -2.6730   -3.2940 ho        1 MOL      0.370022
    189 H93        -1.1130   -3.4700   -2.1300 ho        1 MOL      0.370022
@<TRIPOS>BOND
     1    1    2 1   
     2    1    4 1   
     3    1    5 1   
     4    1    6 1   
     5    2    3 2   
     6    2    7 1   
     7    7    8 1   
     8    7   15 1   
     9    8    9 1   
    10    8   11 1   
    11    8   16 1   
    12    9   10 2   
    13    9   19 1   
    14   11   12 1   
    15   11   17 1   
    16   11   18 1   
    17   12   13 1   
    18   12   14 1   
    19   19   20 1   
    20   19   28 1   
    21   20   21 1   
    22   20   23 1   
    23   20   29 1   
    24   21   22 2   
    25   21   41 1   
    26   23   24 1   
    27   23   30 1   
    28   23   31 1   
    29   24   25 1   
    30   24   32 1   
    31   24   33 1   
    32   25   26 1   
    33   25   34 1   
    34   25   35 1   
    35   26   27 1   
    36   26   36 1   
    37   26   37 1   
    38   27   38 1   
    39   27   39 1   
    40   27   40 1   
    41   41   42 1   
    42   41   49 1   
    43   42   43 1   
    44   42   45 1   
    45   42   50 1   
    46   43   44 2   
    47   43   53 1   
    48   45   46 1   
    49   45   51 1   
    50   45   52 1   
    51   46   47 1   
    52   46   48 1   
    53   53   54 1   
    54   53   57 1   
    55   54   55 1   
    56   54   58 1   
    57   54   59 1   
    58   55   56 2   
    59   55   60 1   
    60   60   61 1   
    61   60   68 1   
    62   61   62 1   
    63   61   64 1   
    64   61   69 1   
    65   62   63 2   
    66   62   72 1   
    67   64   65 1   
    68   64   70 1   
    69   64   71 1   
    70   65   66 1   
    71   65   67 1   
    72   72   73 1   
    73   72   76 1   
    74   73   74 1   
    75   73   77 1   
    76   73   78 1   
    77   74   75 2   
    78   74   79 1   
    79   79   80 1   
    80   79   86 1   
    81   80   81 1   
    82   80   83 1   
    83   80   87 1   
    84   81   82 2   
    85   81   93 1   
    86   83   84 1   
    87   83   85 1   
    88   83   88 1   
    89   84   90 1   
    90   84   91 1   
    91   84   92 1   
    92   85   89 1   
    93   93   94 1   
    94   93  101 1   
    95   94   95 1   
    96   94   97 1   
    97   94  102 1   
    98   95   96 2   
    99   95  112 1   
   100   97   98 1   
   101   97   99 1   
   102   97  103 1   
   103   98  100 1   
   104   98  104 1   
   105   98  105 1   
   106   99  106 1   
   107   99  107 1   
   108   99  108 1   
   109  100  109 1   
   110  100  110 1   
   111  100  111 1   
   112  112  113 1   
   113  112  119 1   
   114  113  114 1   
   115  113  116 1   
   116  113  120 1   
   117  114  115 2   
   118  114  126 1   
   119  116  117 1   
   120  116  118 1   
   121  116  121 1   
   122  117  123 1   
   123  117  124 1   
   124  117  125 1   
   125  118  122 1   
   126  126  127 1   
   127  126  133 1   
   128  127  128 1   
   129  127  130 1   
   130  127  134 1   
   131  128  129 2   
   132  128  140 1   
   133  130  131 1   
   134  130  132 1   
   135  130  135 1   
   136  131  137 1   
   137  131  138 1   
   138  131  139 1   
   139  132  136 1   
   140  140  141 1   
   141  140  149 1   
   142  141  142 1   
   143  141  144 1   
   144  141  150 1   
   145  142  143 2   
   146  142  162 1   
   147  144  145 1   
   148  144  151 1   
   149  144  152 1   
   150  145  146 1   
   151  145  153 1   
   152  145  154 1   
   153  146  147 1   
   154  146  155 1   
   155  146  156 1   
   156  147  148 1   
   157  147  157 1   
   158  147  158 1   
   159  148  159 1   
   160  148  160 1   
   161  148  161 1   
   162  162  163 1   
   163  162  171 1   
   164  163  164 1   
   165  163  166 1   
   166  163  172 1   
   167  164  165 2   
   168  164  177 1   
   169  166  167 1   
   170  166  173 1   
   171  166  174 1   
   172  167  168 1   
   173  167  175 1   
   174  167  176 1   
   175  168  169 1   
   176  168  170 1   
   177  177  178 1   
   178  177  182 1   
   179  178  179 1   
   180  178  180 1   
   181  178  181 1   
   182  184  185 1   
   183  184  186 1   
   184  187  188 1   
   185  187  189 1   
@<TRIPOS>SUBSTRUCTURE
     1 MOL         1 TEMP              0 ****  ****    0 ROOT
