@<TRIPOS>MOLECULE
MOL
  179   176     1     0     0
SMALL
resp


@<TRIPOS>ATOM
      1 C1          2.0470    1.8630    5.7130 c3        1 MOL     -0.282864
      2 C2          1.5800    2.0370    4.3080 c         1 MOL      0.750749
      3 O1          2.3550    1.9130    3.3660 o         1 MOL     -0.630273
      4 H1          2.9810    2.4070    5.8550 hc        1 MOL      0.070978
      5 H2          1.2930    2.2510    6.3980 hc        1 MOL      0.070978
      6 H3          2.2090    0.8040    5.9130 hc        1 MOL      0.070978
      7 N1          0.2610    2.2370    4.1250 n         1 MOL     -0.599470
      8 C3         -0.3820    2.2600    2.8240 c3        1 MOL      0.038394
      9 C4         -0.2710    3.7080    2.3740 c         1 MOL      0.480547
     10 O2         -0.8590    4.5960    3.0260 o         1 MOL     -0.550266
     11 C5         -1.8070    1.7430    2.9600 c3        1 MOL     -0.272073
     12 C6         -2.5330    1.5600    1.6560 c         1 MOL      0.831695
     13 O3         -2.0710    2.1150    0.5780 o         1 MOL     -0.803013
     14 O4         -3.6070    0.8870    1.6340 o         1 MOL     -0.803013
     15 H4         -0.3130    2.4380    4.9420 hn        1 MOL      0.333205
     16 H5          0.2090    1.6640    2.1440 h1        1 MOL      0.110689
     17 H6         -2.3550    2.4990    3.5310 hc        1 MOL      0.092056
     18 H7         -1.8500    0.7960    3.4970 hc        1 MOL      0.092056
     19 N2          0.3520    3.9710    1.2490 n         1 MOL     -0.161848
     20 C7          0.5480    5.2320    0.6840 c3        1 MOL      0.031241
     21 C8         -0.7230    5.7380    0.0730 c         1 MOL      0.509561
     22 O5         -1.0530    6.9060    0.2780 o         1 MOL     -0.547228
     23 C9          1.6290    5.1830   -0.3330 c3        1 MOL     -0.173425
     24 C10         3.0480    5.1520    0.3360 c3        1 MOL     -0.016820
     25 C11         4.2380    4.9180   -0.6160 c3        1 MOL      0.008764
     26 C12         4.2800    5.9710   -1.6790 c3        1 MOL      0.059318
     27 N3          5.5160    5.8960   -2.3970 n4        1 MOL     -0.312388
     28 H8          0.6380    3.1800    0.6860 hn        1 MOL      0.132350
     29 H9          0.7700    5.9010    1.5260 h1        1 MOL      0.056725
     30 H10         1.4900    5.9330   -1.1090 hc        1 MOL      0.044701
     31 H11         1.4260    4.2240   -0.8010 hc        1 MOL      0.044701
     32 H12         3.0670    4.3860    1.1170 hc        1 MOL      0.057094
     33 H13         3.2070    6.0930    0.8470 hc        1 MOL      0.057094
     34 H14         4.1110    3.9550   -1.1140 hc        1 MOL      0.030855
     35 H15         5.1690    4.9100   -0.0510 hc        1 MOL      0.030855
     36 H16         4.2000    6.9200   -1.1480 hx        1 MOL      0.072272
     37 H17         3.5150    5.8800   -2.4440 hx        1 MOL      0.072272
     38 H18         5.4650    6.4900   -3.2060 hn        1 MOL      0.312752
     39 H19         6.2570    6.2700   -1.8210 hn        1 MOL      0.312752
     40 H20         5.8290    4.9760   -2.6630 hn        1 MOL      0.312752
     41 N4         -1.4420    4.9310   -0.7940 n         1 MOL     -0.442250
     42 C13        -2.6660    5.4080   -1.4920 c3        1 MOL     -0.038634
     43 C14        -4.0160    5.1280   -0.7620 c         1 MOL      0.420353
     44 O6         -5.0450    5.5630   -1.2770 o         1 MOL     -0.531214
     45 C15        -2.6610    4.8060   -2.9180 c3        1 MOL     -0.042244
     46 C16        -2.4760    3.2920   -3.1200 c         1 MOL      0.654652
     47 O7         -2.4660    2.5120   -2.1900 o         1 MOL     -0.704596
     48 O8         -2.3250    2.9020   -4.2790 o         1 MOL     -0.704596
     49 H21        -1.2990    3.9300   -0.7900 hn        1 MOL      0.265021
     50 H22        -2.6000    6.4720   -1.6610 h1        1 MOL      0.126765
     51 H23        -1.9620    5.3520   -3.5720 hc        1 MOL      0.023372
     52 H24        -3.5960    5.1480   -3.3590 hc        1 MOL      0.023372
     53 N5         -3.9410    4.4430    0.4050 n         1 MOL     -0.174456
     54 C17        -5.1340    4.1900    1.1490 c3        1 MOL     -0.212566
     55 C18        -5.8740    2.8540    0.6740 c         1 MOL      0.588464
     56 O9         -6.8690    2.5300    1.3210 o         1 MOL     -0.586407
     57 H25        -3.0240    4.1110    0.6720 hn        1 MOL      0.252126
     58 H26        -5.8880    4.9800    1.1330 h1        1 MOL      0.111549
     59 H27        -4.8250    4.0610    2.1870 h1        1 MOL      0.111549
     60 N6         -5.4510    2.1930   -0.4050 n         1 MOL     -0.249130
     61 C19        -6.2600    1.2200   -1.0470 c3        1 MOL     -0.212023
     62 C20        -6.5820   -0.1030   -0.2550 c         1 MOL      0.472824
     63 O10        -7.4350   -0.8400   -0.8220 o         1 MOL     -0.545679
     64 C21        -5.6100    0.8320   -2.4230 c3        1 MOL     -0.144638
     65 C22        -4.6430   -0.3450   -2.2950 c         1 MOL      0.479510
     66 N7         -4.7960   -1.3430   -3.1440 n         1 MOL     -0.671264
     67 O11        -3.7790   -0.4040   -1.4270 o         1 MOL     -0.665423
     68 H28        -4.4980    2.3770   -0.6900 hn        1 MOL      0.241309
     69 H29        -7.1790    1.6950   -1.3800 h1        1 MOL      0.153813
     70 H30        -5.1750    1.5930   -3.0830 hc        1 MOL      0.111906
     71 H31        -6.4130    0.4300   -3.0380 hc        1 MOL      0.111906
     72 H32        -5.3000   -1.2300   -4.0150 hn        1 MOL      0.342805
     73 H33        -4.1790   -2.1460   -3.0880 hn        1 MOL      0.342805
     74 N8         -5.9880   -0.2920    0.9200 n         1 MOL     -0.060072
     75 C23        -6.3040   -1.4950    1.7690 c3        1 MOL     -0.502669
     76 C24        -5.3000   -2.6600    1.6940 c         1 MOL      0.661255
     77 O12        -5.6870   -3.7140    2.1100 o         1 MOL     -0.514932
     78 H34        -5.3000    0.3750    1.2200 hn        1 MOL      0.291636
     79 H35        -7.1600   -2.0260    1.3650 h1        1 MOL      0.176289
     80 H36        -6.3790   -1.2380    2.8160 h1        1 MOL      0.176289
     81 N9         -4.1770   -2.3390    1.0880 n         1 MOL     -0.586021
     82 C25        -3.0830   -3.3620    0.8870 c3        1 MOL      0.026175
     83 C26        -1.6990   -2.6850    0.9450 c         1 MOL      0.531741
     84 O13        -1.5980   -1.5630    0.3960 o         1 MOL     -0.663421
     85 C27        -3.1580   -4.0230   -0.4950 c3        1 MOL      0.306380
     86 C28        -4.4340   -4.9390   -0.7130 ca        1 MOL     -0.174148
     87 C29        -4.3840   -6.2480   -0.1740 ca        1 MOL     -0.154191
     88 C30        -5.5580   -4.3950   -1.3170 ca        1 MOL     -0.154191
     89 C31        -5.5830   -7.0340   -0.2030 ca        1 MOL     -0.220669
     90 C32        -6.7240   -5.1940   -1.3500 ca        1 MOL     -0.220669
     91 C33        -6.6780   -6.5250   -0.7660 ca        1 MOL      0.373927
     92 O14        -7.7310   -7.3160   -0.8860 oh        1 MOL     -0.495445
     93 H37        -4.0590   -1.4170    0.6900 hn        1 MOL      0.526998
     94 H38        -3.1080   -4.1160    1.6710 h1        1 MOL      0.051757
     95 H39        -2.3380   -4.7210   -0.6740 hc        1 MOL     -0.049040
     96 H40        -3.2100   -3.3300   -1.3240 hc        1 MOL     -0.049040
     97 H41        -3.4190   -6.6710    0.0650 ha        1 MOL      0.144032
     98 H42        -5.6230   -3.3470   -1.5590 ha        1 MOL      0.144032
     99 H43        -5.5470   -8.1020   -0.0290 ha        1 MOL      0.136820
    100 H44        -7.6500   -4.7720   -1.7190 ha        1 MOL      0.136820
    101 H45        -8.3590   -6.8520   -1.4570 ho        1 MOL      0.357387
    102 N10        -0.7290   -3.4050    1.5210 n         1 MOL     -0.429462
    103 C34         0.6980   -3.1440    1.5520 c3        1 MOL      0.036472
    104 C35         1.3960   -3.8500    0.4510 c         1 MOL      0.342667
    105 O15         1.5770   -5.1080    0.4470 o         1 MOL     -0.527701
    106 C36         1.3280   -3.4480    2.8750 c3        1 MOL      0.037006
    107 C37         0.8040   -2.5630    4.0060 c3        1 MOL      0.051432
    108 C38         2.8820   -3.1970    2.8890 c3        1 MOL     -0.110226
    109 C39         1.2390   -2.9030    5.4420 c3        1 MOL     -0.183393
    110 H46        -1.0540   -4.2110    2.0350 hn        1 MOL      0.284582
    111 H47         0.8170   -2.0850    1.2960 h1        1 MOL      0.121320
    112 H48         1.1250   -4.4910    3.1320 hc        1 MOL      0.037943
    113 H49        -0.2830   -2.4560    4.0090 hc        1 MOL      0.005850
    114 H50         1.1060   -1.5400    3.7920 hc        1 MOL      0.005850
    115 H51         3.1430   -2.2140    2.4970 hc        1 MOL      0.033823
    116 H52         3.4050   -3.4320    3.8150 hc        1 MOL      0.033823
    117 H53         3.3630   -3.9880    2.3180 hc        1 MOL      0.033823
    118 H54         2.3140   -2.8970    5.6250 hc        1 MOL      0.045620
    119 H55         0.7380   -2.2230    6.1240 hc        1 MOL      0.045620
    120 H56         0.9590   -3.9250    5.7140 hc        1 MOL      0.045620
    121 N11         1.9850   -3.1090   -0.4850 n         1 MOL     -0.086996
    122 C40         2.9840   -3.6150   -1.4690 c3        1 MOL     -0.124380
    123 C41         4.4660   -3.6320   -0.9000 c         1 MOL      0.549624
    124 O16         4.7040   -3.0440    0.1270 o         1 MOL     -0.415539
    125 C42         3.0010   -2.7540   -2.7350 c3        1 MOL      0.063277
    126 O17         3.0150   -1.3760   -2.4380 oh        1 MOL     -0.596459
    127 H57         1.7890   -2.1190   -0.4650 hn        1 MOL      0.139977
    128 H58         2.8550   -4.6680   -1.7210 h1        1 MOL      0.078480
    129 H59         2.0840   -2.9970   -3.2840 h1        1 MOL      0.046226
    130 H60         3.8890   -3.0510   -3.2960 h1        1 MOL      0.046226
    131 H61         2.2330   -1.3090   -1.8890 ho        1 MOL      0.399733
    132 N12         5.4180   -4.2320   -1.6760 n         1 MOL     -0.515300
    133 C43         6.8590   -4.2320   -1.3350 c3        1 MOL      0.243546
    134 C44         7.5500   -2.8680   -1.2600 c         1 MOL      0.377195
    135 O18         8.2200   -2.5560   -0.2640 o         1 MOL     -0.493379
    136 C45         7.4890   -5.3400   -2.1980 c3        1 MOL     -0.296669
    137 H62         5.1800   -4.4600   -2.6330 hn        1 MOL      0.274164
    138 H63         6.8920   -4.5160   -0.2800 h1        1 MOL      0.058759
    139 H64         6.9490   -6.2640   -1.9880 hc        1 MOL      0.088374
    140 H65         7.5610   -5.0180   -3.2380 hc        1 MOL      0.088374
    141 H66         8.5480   -5.4370   -1.9420 hc        1 MOL      0.088374
    142 N13         7.4210   -2.0600   -2.3060 n         1 MOL     -0.323285
    143 C46         7.8260   -0.6650   -2.2600 c3        1 MOL      0.100138
    144 C47         7.1020    0.1640   -1.1700 c         1 MOL      0.380930
    145 O19         7.7270    1.0560   -0.6580 o         1 MOL     -0.506185
    146 C48         7.6620    0.0330   -3.5950 c3        1 MOL     -0.358630
    147 H67         7.0890   -2.4200   -3.1890 hn        1 MOL      0.264970
    148 H68         8.8830   -0.5860   -2.0220 h1        1 MOL      0.101433
    149 H69         7.6590    1.1180   -3.4490 hc        1 MOL      0.095983
    150 H70         8.4180   -0.2350   -4.3290 hc        1 MOL      0.095983
    151 H71         6.6870   -0.1870   -4.0490 hc        1 MOL      0.095983
    152 N14         5.8770   -0.1700   -0.7550 n         1 MOL     -0.193774
    153 C49         5.2730    0.5490    0.4590 c3        1 MOL     -0.048549
    154 C50         6.0460    0.3230    1.7740 c         1 MOL      0.434822
    155 O20         6.4080    1.1790    2.5150 o         1 MOL     -0.514305
    156 C51         3.8750    0.1880    0.6820 c3        1 MOL      0.216024
    157 C52         2.9750    1.0450   -0.2340 c3        1 MOL      0.232166
    158 C53         1.5130    0.6800   -0.3500 c         1 MOL      0.437324
    159 O21         0.6400    1.4930   -0.0540 o         1 MOL     -0.594797
    160 O22         1.0820   -0.4340   -0.8530 o         1 MOL     -0.594797
    161 H72         5.3410   -0.9120   -1.1900 hn        1 MOL      0.171438
    162 H73         5.3130    1.6170    0.2450 h1        1 MOL      0.027405
    163 H74         3.5340    0.4200    1.6860 hc        1 MOL     -0.042333
    164 H75         3.6620   -0.8690    0.5220 hc        1 MOL     -0.042333
    165 H76         3.4950    1.1420   -1.1910 hc        1 MOL     -0.099885
    166 H77         2.9970    2.0530    0.1660 hc        1 MOL     -0.099885
    167 N15         6.4180   -0.9360    2.0050 n         1 MOL     -0.041217
    168 C54         7.1840   -1.3570    3.2060 c3        1 MOL     -0.384538
    169 H78         8.0780   -0.7400    3.3000 h1        1 MOL      0.139542
    170 H79         6.5640   -1.2360    4.0940 h1        1 MOL      0.139542
    171 H80         7.4730   -2.4030    3.1040 h1        1 MOL      0.139542
    172 H81         6.1130   -1.6580    1.3640 hn        1 MOL      0.106355
    173 Ca1        -1.2890    0.4600   -1.2970 Ca        1 MOL      1.757926
    174 O23        -1.0610   -1.7820   -2.9250 oh        1 MOL     -0.878721
    175 H82        -0.5730   -1.6010   -3.7340 ho        1 MOL      0.424614
    176 H83        -1.8650   -2.2030   -3.2290 ho        1 MOL      0.424614
    177 O24         0.5140    1.4190   -3.2360 oh        1 MOL     -0.878721
    178 H84         1.4630    1.3520   -3.0960 ho        1 MOL      0.424614
    179 H85         0.4260    1.9170   -4.0490 ho        1 MOL      0.424614
@<TRIPOS>BOND
     1    1    2 1   
     2    1    4 1   
     3    1    5 1   
     4    1    6 1   
     5    2    3 2   
     6    2    7 1   
     7    7    8 1   
     8    7   15 1   
     9    8    9 1   
    10    8   11 1   
    11    8   16 1   
    12    9   10 2   
    13    9   19 1   
    14   11   12 1   
    15   11   17 1   
    16   11   18 1   
    17   12   13 1   
    18   12   14 1   
    19   19   20 1   
    20   19   28 1   
    21   20   21 1   
    22   20   23 1   
    23   20   29 1   
    24   21   22 2   
    25   21   41 1   
    26   23   24 1   
    27   23   30 1   
    28   23   31 1   
    29   24   25 1   
    30   24   32 1   
    31   24   33 1   
    32   25   26 1   
    33   25   34 1   
    34   25   35 1   
    35   26   27 1   
    36   26   36 1   
    37   26   37 1   
    38   27   38 1   
    39   27   39 1   
    40   27   40 1   
    41   41   42 1   
    42   41   49 1   
    43   42   43 1   
    44   42   45 1   
    45   42   50 1   
    46   43   44 2   
    47   43   53 1   
    48   45   46 1   
    49   45   51 1   
    50   45   52 1   
    51   46   47 1   
    52   46   48 1   
    53   53   54 1   
    54   53   57 1   
    55   54   55 1   
    56   54   58 1   
    57   54   59 1   
    58   55   56 2   
    59   55   60 1   
    60   60   61 1   
    61   60   68 1   
    62   61   62 1   
    63   61   64 1   
    64   61   69 1   
    65   62   63 2   
    66   62   74 1   
    67   64   65 1   
    68   64   70 1   
    69   64   71 1   
    70   65   66 1   
    71   65   67 2   
    72   66   72 1   
    73   66   73 1   
    74   74   75 1   
    75   74   78 1   
    76   75   76 1   
    77   75   79 1   
    78   75   80 1   
    79   76   77 2   
    80   76   81 1   
    81   81   82 1   
    82   81   93 1   
    83   82   83 1   
    84   82   85 1   
    85   82   94 1   
    86   83   84 2   
    87   83  102 1   
    88   85   86 1   
    89   85   95 1   
    90   85   96 1   
    91   86   87 ar  
    92   86   88 ar  
    93   87   89 ar  
    94   87   97 1   
    95   88   90 ar  
    96   88   98 1   
    97   89   91 ar  
    98   89   99 1   
    99   90   91 ar  
   100   90  100 1   
   101   91   92 1   
   102   92  101 1   
   103  102  103 1   
   104  102  110 1   
   105  103  104 1   
   106  103  106 1   
   107  103  111 1   
   108  104  105 2   
   109  104  121 1   
   110  106  107 1   
   111  106  108 1   
   112  106  112 1   
   113  107  109 1   
   114  107  113 1   
   115  107  114 1   
   116  108  115 1   
   117  108  116 1   
   118  108  117 1   
   119  109  118 1   
   120  109  119 1   
   121  109  120 1   
   122  121  122 1   
   123  121  127 1   
   124  122  123 1   
   125  122  125 1   
   126  122  128 1   
   127  123  124 2   
   128  123  132 1   
   129  125  126 1   
   130  125  129 1   
   131  125  130 1   
   132  126  131 1   
   133  132  133 1   
   134  132  137 1   
   135  133  134 1   
   136  133  136 1   
   137  133  138 1   
   138  134  135 2   
   139  134  142 1   
   140  136  139 1   
   141  136  140 1   
   142  136  141 1   
   143  142  143 1   
   144  142  147 1   
   145  143  144 1   
   146  143  146 1   
   147  143  148 1   
   148  144  145 2   
   149  144  152 1   
   150  146  149 1   
   151  146  150 1   
   152  146  151 1   
   153  152  153 1   
   154  152  161 1   
   155  153  154 1   
   156  153  156 1   
   157  153  162 1   
   158  154  155 2   
   159  154  167 1   
   160  156  157 1   
   161  156  163 1   
   162  156  164 1   
   163  157  158 1   
   164  157  165 1   
   165  157  166 1   
   166  158  159 1   
   167  158  160 1   
   168  167  168 1   
   169  167  172 1   
   170  168  169 1   
   171  168  170 1   
   172  168  171 1   
   173  174  175 1   
   174  174  176 1   
   175  177  178 1   
   176  177  179 1   
@<TRIPOS>SUBSTRUCTURE
     1 MOL         1 TEMP              0 ****  ****    0 ROOT
