@<TRIPOS>MOLECULE
MOL
  175   173     1     0     0
SMALL
resp


@<TRIPOS>ATOM
      1 C1          0.2310    3.4800    5.7990 c3        1 MOL     -0.333851
      2 C2         -0.2570    3.5340    4.3810 c         1 MOL      0.742431
      3 O1          0.5100    3.4690    3.4130 o         1 MOL     -0.588679
      4 H1         -0.3350    2.7270    6.3490 hc        1 MOL      0.079639
      5 H2          1.2880    3.2170    5.8090 hc        1 MOL      0.079639
      6 H3          0.0920    4.4540    6.2690 hc        1 MOL      0.079639
      7 N1         -1.5670    3.4110    4.1720 n         1 MOL     -0.674850
      8 C3         -2.1260    3.3450    2.7620 c3        1 MOL      0.226409
      9 C4         -2.1420    4.6960    2.0300 c         1 MOL      0.690966
     10 O2         -2.1860    5.7080    2.6730 o         1 MOL     -0.604193
     11 C5         -3.5990    2.8960    2.8920 c3        1 MOL     -0.428636
     12 C6         -4.2520    2.2070    1.6950 c         1 MOL      0.892833
     13 O3         -5.4200    1.8360    1.7660 o         1 MOL     -0.706870
     14 O4         -3.5790    2.0380    0.6870 o         1 MOL     -0.706870
     15 H4         -2.1850    3.2150    4.9480 hn        1 MOL      0.338594
     16 H5         -1.6660    2.5780    2.1480 h1        1 MOL      0.020624
     17 H6         -4.1920    3.7680    3.1710 hc        1 MOL      0.071823
     18 H7         -3.6760    2.1630    3.6970 hc        1 MOL      0.071823
     19 N2         -2.2060    4.5770    0.7380 n         1 MOL     -0.647267
     20 C7         -2.3630    5.5930   -0.2460 c3        1 MOL      0.296881
     21 C8         -3.2490    5.2400   -1.4400 c         1 MOL      0.410189
     22 O5         -3.4750    6.0710   -2.2600 o         1 MOL     -0.532515
     23 C9         -0.9670    5.9960   -0.6520 c3        1 MOL     -0.140928
     24 H8         -2.1590    3.6070    0.4570 hn        1 MOL      0.391659
     25 H9         -2.7280    6.5080    0.2150 h1        1 MOL      0.014076
     26 H10        -0.3830    6.2350    0.2360 hc        1 MOL      0.031479
     27 H11        -0.3800    5.1570   -1.0380 hc        1 MOL      0.031479
     28 H12        -1.0570    6.8440   -1.3250 hc        1 MOL      0.031479
     29 N3         -3.7920    3.9740   -1.5290 n         1 MOL     -0.344256
     30 C10        -4.6350    3.5660   -2.6780 c3        1 MOL      0.305263
     31 C11        -5.9750    2.9620   -2.2530 c         1 MOL      0.246785
     32 O6         -6.8070    2.8400   -3.1540 o         1 MOL     -0.561766
     33 C12        -3.9200    2.5410   -3.5730 c3        1 MOL     -0.268052
     34 C13        -3.1740    1.5240   -2.6660 c         1 MOL      0.722560
     35 O7         -3.8890    0.7830   -1.9760 o         1 MOL     -0.707202
     36 O8         -1.9380    1.3800   -2.5440 o         1 MOL     -0.707202
     37 H13        -3.6420    3.3340   -0.7640 hn        1 MOL      0.148514
     38 H14        -4.9200    4.4070   -3.3150 h1        1 MOL      0.039406
     39 H15        -3.1310    3.0300   -4.1460 hc        1 MOL      0.054087
     40 H16        -4.5540    1.9760   -4.2580 hc        1 MOL      0.054087
     41 N4         -6.2210    2.4990   -1.0840 n         1 MOL     -0.120593
     42 C14        -7.3970    1.7660   -0.7300 c3        1 MOL     -0.179028
     43 C15        -7.3790    0.2610   -1.0830 c         1 MOL      0.449662
     44 O9         -8.4330   -0.3180   -0.8770 o         1 MOL     -0.600856
     45 H17        -5.4320    2.6060   -0.4750 hn        1 MOL      0.111929
     46 H18        -8.2370    2.1990   -1.2700 h1        1 MOL      0.123493
     47 H19        -7.6740    1.9040    0.3220 h1        1 MOL      0.123493
     48 N5         -6.3510   -0.4110   -1.6210 n         1 MOL     -0.066039
     49 C16        -6.4260   -1.7780   -2.0860 c3        1 MOL     -0.194876
     50 C17        -6.4010   -2.9420   -1.0260 c         1 MOL      0.535217
     51 O10        -6.6600   -4.0860   -1.3580 o         1 MOL     -0.543726
     52 C18        -5.3300   -2.0100   -3.1600 c3        1 MOL     -0.252094
     53 C19        -3.8750   -1.8870   -2.7220 c         1 MOL      0.732088
     54 N6         -2.9410   -1.6290   -3.5650 n         1 MOL     -0.776963
     55 O11        -3.5800   -1.9870   -1.5120 o         1 MOL     -0.472863
     56 H20        -5.5750    0.1810   -1.8710 hn        1 MOL      0.225302
     57 H21        -7.3350   -1.8780   -2.6860 h1        1 MOL      0.137653
     58 H22        -5.5570   -1.3870   -4.0390 hc        1 MOL      0.077357
     59 H23        -5.2560   -3.0440   -3.4880 hc        1 MOL      0.077357
     60 H24        -3.1150   -1.5090   -4.5550 hn        1 MOL      0.359180
     61 H25        -2.0560   -1.3640   -3.1550 hn        1 MOL      0.359180
     62 N7         -6.2550   -2.6480    0.2710 n         1 MOL     -0.321599
     63 C20        -6.3040   -3.6550    1.3680 c3        1 MOL      0.009908
     64 C21        -5.0280   -4.5250    1.6550 c         1 MOL      0.487861
     65 O12        -5.0970   -5.5880    2.2250 o         1 MOL     -0.588830
     66 H26        -5.8950   -1.7260    0.4820 hn        1 MOL      0.224103
     67 H27        -7.1700   -4.3110    1.2740 h1        1 MOL      0.046054
     68 H28        -6.5190   -3.1490    2.3050 h1        1 MOL      0.046054
     69 N8         -3.8960   -4.0860    1.1910 n         1 MOL     -0.154167
     70 C22        -2.5670   -4.6640    1.2770 c3        1 MOL     -0.216397
     71 C23        -1.4590   -3.6110    1.3970 c         1 MOL      0.695408
     72 O13        -1.7270   -2.4740    1.0430 o         1 MOL     -0.611446
     73 C24        -2.1800   -5.4960    0.0880 c3        1 MOL      0.474716
     74 C25        -2.7870   -6.9000   -0.0160 c3        1 MOL     -0.552702
     75 O14        -2.7330   -4.9080   -1.0760 oh        1 MOL     -0.528472
     76 H29        -3.9970   -3.2040    0.6980 hn        1 MOL      0.130564
     77 H30        -2.5120   -5.3040    2.1560 h1        1 MOL      0.098478
     78 H31        -1.0920   -5.5770   -0.0190 h1        1 MOL     -0.011180
     79 H32        -2.4970   -3.9760   -1.0570 ho        1 MOL      0.238086
     80 H33        -2.5580   -7.3600   -0.9850 hc        1 MOL      0.142452
     81 H34        -2.4810   -7.5880    0.7690 hc        1 MOL      0.142452
     82 H35        -3.8630   -6.7300   -0.0810 hc        1 MOL      0.142452
     83 N9         -0.2670   -3.9350    1.8830 n         1 MOL     -0.690291
     84 C26         0.9080   -3.0400    1.7800 c3        1 MOL      0.215561
     85 C27         1.5860   -3.3020    0.4140 c         1 MOL      0.659064
     86 O15         1.7820   -4.4480   -0.0100 o         1 MOL     -0.631934
     87 C28         1.8600   -3.2710    3.0100 c3        1 MOL     -0.009456
     88 C29         1.5310   -2.2640    4.1460 c3        1 MOL      0.064472
     89 C30         3.3160   -3.1310    2.5690 c3        1 MOL     -0.141871
     90 C31         2.3650   -2.5580    5.4680 c3        1 MOL     -0.089467
     91 H36        -0.1960   -4.8930    2.1770 hn        1 MOL      0.297195
     92 H37         0.5690   -2.0110    1.7920 h1        1 MOL      0.047177
     93 H38         1.7680   -4.3150    3.3080 hc        1 MOL      0.041768
     94 H39         0.4950   -2.3260    4.4610 hc        1 MOL     -0.013068
     95 H40         1.6430   -1.2260    3.8190 hc        1 MOL     -0.013068
     96 H41         3.8990   -3.3410    3.4700 hc        1 MOL      0.015078
     97 H42         3.5050   -3.8920    1.8120 hc        1 MOL      0.015078
     98 H43         3.5730   -2.1250    2.2350 hc        1 MOL      0.015078
     99 H44         1.9870   -2.0940    6.3730 hc        1 MOL      0.013059
    100 H45         2.1620   -3.6200    5.6400 hc        1 MOL      0.013059
    101 H46         3.4020   -2.2750    5.3070 hc        1 MOL      0.013059
    102 N10         1.9460   -2.2440   -0.2300 n         1 MOL     -0.200956
    103 C32         2.7320   -2.0970   -1.4530 c3        1 MOL     -0.084460
    104 C33         4.1210   -1.5990   -1.0430 c         1 MOL      0.570427
    105 O16         4.3740   -1.1870    0.0630 o         1 MOL     -0.396981
    106 C34         2.0450   -0.9530   -2.2450 c3        1 MOL     -0.194980
    107 C35         0.6500   -1.3100   -2.7290 c         1 MOL      0.723105
    108 O17        -0.3320   -1.1700   -1.9530 o         1 MOL     -0.682746
    109 O18         0.5140   -1.5690   -3.9590 o         1 MOL     -0.682746
    110 H47         1.5790   -1.3970    0.1790 hn        1 MOL     -0.064840
    111 H48         2.8040   -3.0350   -2.0020 h1        1 MOL      0.114953
    112 H49         2.6310   -0.5670   -3.0760 hc        1 MOL      0.074067
    113 H50         1.9070   -0.0880   -1.6070 hc        1 MOL      0.074067
    114 N11         5.0280   -1.6390   -2.0010 n         1 MOL     -0.700826
    115 C36         6.4570   -1.4840   -1.6480 c3        1 MOL      0.312969
    116 C37         6.7380   -0.0650   -1.0020 c         1 MOL      0.551199
    117 O19         7.2630   -0.0320    0.1610 o         1 MOL     -0.531889
    118 C38         7.3970   -1.8190   -2.8080 c3        1 MOL     -0.090796
    119 C39         8.7880   -1.2370   -2.5430 ca        1 MOL     -0.052531
    120 C40         9.5390   -1.5940   -1.3810 ca        1 MOL     -0.084001
    121 C41         9.3460   -0.2410   -3.3660 ca        1 MOL     -0.084001
    122 C42        10.7450   -1.0090   -1.0320 ca        1 MOL     -0.151995
    123 C43        10.6120    0.2910   -3.0610 ca        1 MOL     -0.151995
    124 C44        11.3030   -0.1090   -1.8970 ca        1 MOL     -0.082101
    125 H51         4.8620   -1.9870   -2.9330 hn        1 MOL      0.341104
    126 H52         6.7010   -2.1490   -0.8220 h1        1 MOL      0.028650
    127 H53         6.9510   -1.4280   -3.7300 hc        1 MOL      0.045008
    128 H54         7.5050   -2.8940   -2.9480 hc        1 MOL      0.045008
    129 H55         9.0460   -2.3020   -0.7400 ha        1 MOL      0.092654
    130 H56         8.9300   -0.0420   -4.3370 ha        1 MOL      0.092654
    131 H57        11.2620   -1.2690   -0.1260 ha        1 MOL      0.121557
    132 H58        11.0060    1.0480   -3.7200 ha        1 MOL      0.121557
    133 H59        12.2310    0.3850   -1.6550 ha        1 MOL      0.097075
    134 N12         6.3290    1.0600   -1.5990 n         1 MOL     -0.253992
    135 C45         6.3660    2.3770   -0.9350 c3        1 MOL      0.091575
    136 C46         5.7390    2.4980    0.5040 c         1 MOL      0.258832
    137 O20         6.1730    3.2190    1.3050 o         1 MOL     -0.477575
    138 C47         5.6550    3.3210   -1.8540 c3        1 MOL      0.042008
    139 C48         5.9820    2.7030   -3.2060 c3        1 MOL     -0.054026
    140 C49         5.8450    1.1890   -2.9440 c3        1 MOL     -0.032336
    141 H60         7.3970    2.7220   -0.8460 h1        1 MOL      0.039721
    142 H61         4.5770    3.3050   -1.7330 hc        1 MOL      0.018573
    143 H62         5.9640    4.3590   -1.7370 hc        1 MOL      0.018573
    144 H63         5.2780    3.0110   -3.9720 hc        1 MOL      0.021508
    145 H64         6.9890    3.0330   -3.4660 hc        1 MOL      0.021508
    146 H65         4.8000    0.8890   -3.0340 h1        1 MOL      0.043858
    147 H66         6.5250    0.6710   -3.6070 h1        1 MOL      0.043858
    148 N13         4.7440    1.6420    0.7380 n         1 MOL     -0.011135
    149 C50         4.0220    1.6570    1.9960 c3        1 MOL     -0.264861
    150 C51         4.7270    0.6390    2.9710 c         1 MOL      0.505474
    151 O21         4.6910    0.8200    4.1690 o         1 MOL     -0.587688
    152 C52         2.6260    1.2200    1.7990 c3        1 MOL      0.020803
    153 C53         1.8740    2.0710    0.7840 c3        1 MOL     -0.242468
    154 C54         0.5000    1.4030    0.5010 c         1 MOL      0.647050
    155 O22         0.2310    0.2340    0.9470 o         1 MOL     -0.674538
    156 O23        -0.4280    1.9980   -0.0510 o         1 MOL     -0.674538
    157 H67         4.3960    1.1210   -0.0620 hn        1 MOL      0.155964
    158 H68         4.0040    2.6890    2.3440 h1        1 MOL      0.147148
    159 H69         2.0770    1.1680    2.7450 hc        1 MOL      0.091456
    160 H70         2.6930    0.2300    1.3560 hc        1 MOL      0.091456
    161 H71         2.3970    2.1600   -0.1720 hc        1 MOL      0.092792
    162 H72         1.6310    3.0810    1.1040 hc        1 MOL      0.092792
    163 N14         5.4250   -0.3530    2.5050 n         1 MOL      0.036177
    164 C55         6.3900   -1.1180    3.3340 c3        1 MOL     -0.216770
    165 H73         5.8490   -1.8420    3.9440 h1        1 MOL      0.075897
    166 H74         7.0920   -1.6430    2.6850 h1        1 MOL      0.075897
    167 H75         6.9360   -0.4330    3.9820 h1        1 MOL      0.075897
    168 H76         5.4470   -0.5740    1.5180 hn        1 MOL      0.031588
    169 Ca1        -2.0650   -0.0690   -0.3090 Ca        1 MOL      1.658986
    170 O24        -4.3760   -0.6980    1.1180 oh        1 MOL     -0.739493
    171 H77        -4.2170   -0.9240    2.0420 ho        1 MOL      0.365731
    172 H78        -4.9300    0.0820    1.1540 ho        1 MOL      0.365731
    173 O25        -2.0220    0.0830    2.4860 oh        1 MOL     -0.739493
    174 H79        -2.1930    0.5250    3.3180 ho        1 MOL      0.365731
    175 H80        -1.0630    0.1040    2.4040 ho        1 MOL      0.365731
@<TRIPOS>BOND
     1    1    2 1   
     2    1    4 1   
     3    1    5 1   
     4    1    6 1   
     5    2    3 2   
     6    2    7 1   
     7    7    8 1   
     8    7   15 1   
     9    8    9 1   
    10    8   11 1   
    11    8   16 1   
    12    9   10 2   
    13    9   19 1   
    14   11   12 1   
    15   11   17 1   
    16   11   18 1   
    17   12   13 1   
    18   12   14 1   
    19   19   20 1   
    20   19   24 1   
    21   20   21 1   
    22   20   23 1   
    23   20   25 1   
    24   21   22 2   
    25   21   29 1   
    26   23   26 1   
    27   23   27 1   
    28   23   28 1   
    29   29   30 1   
    30   29   37 1   
    31   30   31 1   
    32   30   33 1   
    33   30   38 1   
    34   31   32 2   
    35   31   41 1   
    36   33   34 1   
    37   33   39 1   
    38   33   40 1   
    39   34   35 1   
    40   34   36 1   
    41   41   42 1   
    42   41   45 1   
    43   42   43 1   
    44   42   46 1   
    45   42   47 1   
    46   43   44 2   
    47   43   48 1   
    48   48   49 1   
    49   48   56 1   
    50   49   50 1   
    51   49   52 1   
    52   49   57 1   
    53   50   51 2   
    54   50   62 1   
    55   52   53 1   
    56   52   58 1   
    57   52   59 1   
    58   53   54 1   
    59   53   55 2   
    60   54   60 1   
    61   54   61 1   
    62   62   63 1   
    63   62   66 1   
    64   63   64 1   
    65   63   67 1   
    66   63   68 1   
    67   64   65 2   
    68   64   69 1   
    69   69   70 1   
    70   69   76 1   
    71   70   71 1   
    72   70   73 1   
    73   70   77 1   
    74   71   72 2   
    75   71   83 1   
    76   73   74 1   
    77   73   75 1   
    78   73   78 1   
    79   74   80 1   
    80   74   81 1   
    81   74   82 1   
    82   75   79 1   
    83   83   84 1   
    84   83   91 1   
    85   84   85 1   
    86   84   87 1   
    87   84   92 1   
    88   85   86 2   
    89   85  102 1   
    90   87   88 1   
    91   87   89 1   
    92   87   93 1   
    93   88   90 1   
    94   88   94 1   
    95   88   95 1   
    96   89   96 1   
    97   89   97 1   
    98   89   98 1   
    99   90   99 1   
   100   90  100 1   
   101   90  101 1   
   102  102  103 1   
   103  102  110 1   
   104  103  104 1   
   105  103  106 1   
   106  103  111 1   
   107  104  105 2   
   108  104  114 1   
   109  106  107 1   
   110  106  112 1   
   111  106  113 1   
   112  107  108 1   
   113  107  109 1   
   114  114  115 1   
   115  114  125 1   
   116  115  116 1   
   117  115  118 1   
   118  115  126 1   
   119  116  117 2   
   120  116  134 1   
   121  118  119 1   
   122  118  127 1   
   123  118  128 1   
   124  119  120 ar  
   125  119  121 ar  
   126  120  122 ar  
   127  120  129 1   
   128  121  123 ar  
   129  121  130 1   
   130  122  124 ar  
   131  122  131 1   
   132  123  124 ar  
   133  123  132 1   
   134  124  133 1   
   135  134  135 1   
   136  134  140 1   
   137  135  136 1   
   138  135  138 1   
   139  135  141 1   
   140  136  137 2   
   141  136  148 1   
   142  138  139 1   
   143  138  142 1   
   144  138  143 1   
   145  139  140 1   
   146  139  144 1   
   147  139  145 1   
   148  140  146 1   
   149  140  147 1   
   150  148  149 1   
   151  148  157 1   
   152  149  150 1   
   153  149  152 1   
   154  149  158 1   
   155  150  151 2   
   156  150  163 1   
   157  152  153 1   
   158  152  159 1   
   159  152  160 1   
   160  153  154 1   
   161  153  161 1   
   162  153  162 1   
   163  154  155 1   
   164  154  156 1   
   165  163  164 1   
   166  163  168 1   
   167  164  165 1   
   168  164  166 1   
   169  164  167 1   
   170  170  171 1   
   171  170  172 1   
   172  173  174 1   
   173  173  175 1   
@<TRIPOS>SUBSTRUCTURE
     1 MOL         1 TEMP              0 ****  ****    0 ROOT
