@<TRIPOS>MOLECULE
MOL
  175   173     1     0     0
SMALL
resp


@<TRIPOS>ATOM
      1 C1          0.6810    3.3100    5.7980 c3        1 MOL     -0.420024
      2 C2          0.1030    3.6260    4.3500 c         1 MOL      0.689576
      3 O1          0.8530    3.7930    3.4100 o         1 MOL     -0.536427
      4 H1          1.4090    2.5020    5.7290 hc        1 MOL      0.100283
      5 H2          1.1640    4.2010    6.2000 hc        1 MOL      0.100283
      6 H3         -0.1340    3.0090    6.4570 hc        1 MOL      0.100283
      7 N1         -1.2120    3.5730    4.2120 n         1 MOL     -0.599579
      8 C3         -1.9390    3.4280    2.8590 c3        1 MOL      0.114068
      9 C4         -2.1540    4.6870    2.0180 c         1 MOL      0.625861
     10 O2         -2.1610    5.8170    2.5780 o         1 MOL     -0.579747
     11 C5         -3.3590    2.8260    3.0990 c3        1 MOL     -0.473331
     12 C6         -4.2190    2.2440    1.8910 c         1 MOL      0.855329
     13 O3         -3.7600    2.0040    0.7310 o         1 MOL     -0.687868
     14 O4         -5.3790    2.0160    2.2890 o         1 MOL     -0.687868
     15 H4         -1.7060    3.2920    5.0520 hn        1 MOL      0.328384
     16 H5         -1.4410    2.6870    2.2310 h1        1 MOL      0.091227
     17 H6         -3.9310    3.6120    3.5810 hc        1 MOL      0.095111
     18 H7         -3.1590    1.9290    3.6820 hc        1 MOL      0.095111
     19 N2         -2.3150    4.5560    0.7110 n         1 MOL     -0.564199
     20 C7         -2.5670    5.6620   -0.2450 c3        1 MOL      0.132473
     21 C8         -3.2440    5.1920   -1.5200 c         1 MOL      0.508295
     22 O5         -3.3010    6.0340   -2.4870 o         1 MOL     -0.578755
     23 C9         -1.1830    6.2820   -0.5570 c3        1 MOL     -0.247185
     24 H8         -2.1200    3.6590    0.2830 hn        1 MOL      0.419640
     25 H9         -3.1430    6.4310    0.2700 h1        1 MOL      0.070340
     26 H10        -1.3280    7.3040   -0.9040 hc        1 MOL      0.069307
     27 H11        -0.6020    6.3840    0.3570 hc        1 MOL      0.069307
     28 H12        -0.6590    5.7290   -1.3450 hc        1 MOL      0.069307
     29 N3         -3.8880    4.0240   -1.6230 n         1 MOL     -0.309053
     30 C10        -4.6110    3.5690   -2.8300 c3        1 MOL      0.025887
     31 C11        -5.8780    2.7000   -2.5950 c         1 MOL      0.510308
     32 O6         -6.7290    2.5400   -3.4350 o         1 MOL     -0.554340
     33 C12        -3.6710    2.6780   -3.7270 c3        1 MOL     -0.194406
     34 C13        -3.1050    1.5240   -2.9210 c         1 MOL      0.778211
     35 O7         -3.7960    0.8040   -2.1890 o         1 MOL     -0.745824
     36 O8         -1.8390    1.3740   -2.8500 o         1 MOL     -0.745824
     37 H13        -3.8390    3.3980   -0.8250 hn        1 MOL      0.097898
     38 H14        -5.0570    4.4460   -3.3070 h1        1 MOL      0.074294
     39 H15        -2.7900    3.1790   -4.1350 hc        1 MOL      0.055314
     40 H16        -4.2630    2.2630   -4.5430 hc        1 MOL      0.055314
     41 N4         -6.0510    2.1960   -1.3530 n         1 MOL     -0.272978
     42 C14        -7.3310    1.5610   -1.0430 c3        1 MOL     -0.253072
     43 C15        -7.4390    0.0180   -1.3550 c         1 MOL      0.551210
     44 O9         -8.5350   -0.5150   -1.1760 o         1 MOL     -0.620640
     45 H17        -5.2610    2.2860   -0.7230 hn        1 MOL      0.201788
     46 H18        -8.2010    2.0060   -1.5300 h1        1 MOL      0.132016
     47 H19        -7.4250    1.7090    0.0360 h1        1 MOL      0.132016
     48 N5         -6.3770   -0.7170   -1.7320 n         1 MOL     -0.240468
     49 C16        -6.3370   -2.1290   -2.1110 c3        1 MOL      0.052705
     50 C17        -6.2390   -3.1260   -0.9340 c         1 MOL      0.357120
     51 O10        -5.8940   -4.3050   -1.1230 o         1 MOL     -0.482358
     52 C18        -5.2950   -2.3220   -3.1990 c3        1 MOL     -0.235700
     53 C19        -3.8790   -2.2770   -2.6340 c         1 MOL      0.570427
     54 N6         -2.8990   -2.5460   -3.3920 n         1 MOL     -0.559532
     55 O11        -3.6490   -2.1110   -1.4590 o         1 MOL     -0.514614
     56 H20        -5.4910   -0.2400   -1.6480 hn        1 MOL      0.195580
     57 H21        -7.3040   -2.2820   -2.5900 h1        1 MOL      0.088164
     58 H22        -5.3430   -1.4980   -3.9150 hc        1 MOL      0.076601
     59 H23        -5.5750   -3.2530   -3.6720 hc        1 MOL      0.076601
     60 H24        -3.1860   -2.9740   -4.2630 hn        1 MOL      0.299756
     61 H25        -1.9470   -2.4570   -3.0650 hn        1 MOL      0.299756
     62 N7         -6.3600   -2.6170    0.2960 n         1 MOL     -0.209172
     63 C20        -6.3310   -3.4930    1.4490 c3        1 MOL     -0.254658
     64 C21        -5.0150   -4.1500    1.8620 c         1 MOL      0.544952
     65 O12        -4.9290   -4.8720    2.8370 o         1 MOL     -0.579156
     66 H26        -6.6320   -1.6450    0.3830 hn        1 MOL      0.261526
     67 H27        -7.0160   -4.3160    1.2400 h1        1 MOL      0.117030
     68 H28        -6.7330   -2.9680    2.3090 h1        1 MOL      0.117030
     69 N8         -3.8920   -3.7650    1.1950 n         1 MOL     -0.198742
     70 C22        -2.5560   -4.3920    1.4910 c3        1 MOL     -0.151341
     71 C23        -1.4350   -3.3400    1.3800 c         1 MOL      0.619963
     72 O13        -1.4540   -2.3560    0.5890 o         1 MOL     -0.554296
     73 C24        -2.4070   -5.4690    0.4220 c3        1 MOL      0.468764
     74 C25        -3.2050   -6.6560    0.6760 c3        1 MOL     -0.531240
     75 O14        -2.7780   -5.0480   -0.8690 oh        1 MOL     -0.561932
     76 H29        -3.9860   -3.1320    0.4160 hn        1 MOL      0.129650
     77 H30        -2.5610   -4.8430    2.4760 h1        1 MOL      0.100838
     78 H31        -1.3460   -5.7050    0.5000 h1        1 MOL     -0.042812
     79 H32        -2.5030   -4.1360   -1.0160 ho        1 MOL      0.343551
     80 H33        -4.2010   -6.5050    0.2680 hc        1 MOL      0.135314
     81 H34        -2.7310   -7.4250    0.0640 hc        1 MOL      0.135314
     82 H35        -3.2830   -6.9540    1.7110 hc        1 MOL      0.135314
     83 N9         -0.4140   -3.5160    2.2210 n         1 MOL     -0.627830
     84 C26         0.8630   -2.7490    2.1300 c3        1 MOL      0.047367
     85 C27         1.5660   -3.0460    0.7920 c         1 MOL      0.646057
     86 O15         2.0380   -4.1310    0.5540 o         1 MOL     -0.599565
     87 C28         1.7970   -2.9630    3.3240 c3        1 MOL      0.054726
     88 C29         1.0770   -2.7620    4.6410 c3        1 MOL      0.297499
     89 C30         2.9950   -2.0540    3.1550 c3        1 MOL     -0.117224
     90 C31         1.9900   -3.0820    5.7730 c3        1 MOL     -0.176709
     91 H36        -0.4520   -4.1680    2.9910 hn        1 MOL      0.319298
     92 H37         0.5330   -1.7130    2.1440 h1        1 MOL      0.039179
     93 H38         2.1210   -3.9920    3.1710 hc        1 MOL     -0.002915
     94 H39         0.2630   -3.4810    4.6950 hc        1 MOL     -0.073496
     95 H40         0.5740   -1.8070    4.7580 hc        1 MOL     -0.073496
     96 H41         3.6870   -2.2400    3.9710 hc        1 MOL      0.013988
     97 H42         3.6110   -2.2010    2.2610 hc        1 MOL      0.013988
     98 H43         2.7170   -1.0240    2.9600 hc        1 MOL      0.013988
     99 H44         1.4290   -3.0260    6.7090 hc        1 MOL      0.023336
    100 H45         2.3490   -4.0950    5.6340 hc        1 MOL      0.023336
    101 H46         2.7490   -2.3080    5.8450 hc        1 MOL      0.023336
    102 N10         1.5810   -1.9630   -0.0020 n         1 MOL     -0.245102
    103 C32         2.4260   -1.9360   -1.2070 c3        1 MOL      0.045392
    104 C33         3.8790   -1.4440   -0.9540 c         1 MOL      0.349220
    105 O16         4.2730   -0.8680    0.1060 o         1 MOL     -0.341140
    106 C34         1.7950   -1.0000   -2.2640 c3        1 MOL     -0.318038
    107 C35         0.3780   -1.4220   -2.7560 c         1 MOL      0.761042
    108 O17        -0.5650   -1.2430   -1.9680 o         1 MOL     -0.689549
    109 O18         0.1710   -1.9470   -3.8630 o         1 MOL     -0.689549
    110 H47         1.1250   -1.1440    0.3580 hn        1 MOL      0.096214
    111 H48         2.5740   -2.9430   -1.6060 h1        1 MOL      0.082099
    112 H49         2.4220   -0.9810   -3.1580 hc        1 MOL      0.090734
    113 H50         1.7430    0.0410   -1.9420 hc        1 MOL      0.090734
    114 N11         4.8240   -1.7400   -1.8620 n         1 MOL     -0.574166
    115 C36         6.2710   -1.5700   -1.5830 c3        1 MOL      0.476852
    116 C37         6.6190   -0.1230   -1.2200 c         1 MOL      0.100097
    117 O19         7.3810    0.1350   -0.2380 o         1 MOL     -0.447960
    118 C38         7.1700   -2.1900   -2.6420 c3        1 MOL     -0.335272
    119 C39         8.5720   -1.9760   -2.3160 ca        1 MOL      0.292978
    120 C40         9.2040   -2.8590   -1.4010 ca        1 MOL     -0.320784
    121 C41         9.3340   -0.9320   -2.8920 ca        1 MOL     -0.320784
    122 C42        10.4520   -2.5620   -0.8190 ca        1 MOL      0.000009
    123 C43        10.6130   -0.6540   -2.3030 ca        1 MOL      0.000009
    124 C44        11.1840   -1.5140   -1.3050 ca        1 MOL     -0.217400
    125 H51         4.5670   -2.1980   -2.7160 hn        1 MOL      0.321203
    126 H52         6.5310   -2.1680   -0.7070 h1        1 MOL      0.016333
    127 H53         6.8460   -1.7590   -3.5910 hc        1 MOL      0.077393
    128 H54         6.9060   -3.2490   -2.6240 hc        1 MOL      0.077393
    129 H55         8.7370   -3.7280   -0.9550 ha        1 MOL      0.159312
    130 H56         8.9510   -0.4100   -3.7510 ha        1 MOL      0.159312
    131 H57        10.6980   -3.0700    0.1050 ha        1 MOL      0.093879
    132 H58        11.2250    0.1450   -2.7140 ha        1 MOL      0.093879
    133 H59        12.1230   -1.2950   -0.8160 ha        1 MOL      0.122415
    134 N12         6.2540    0.9280   -1.9920 n         1 MOL      0.155105
    135 C45         6.5280    2.3160   -1.5640 c3        1 MOL      0.192325
    136 C46         5.9200    2.6660   -0.1910 c         1 MOL      0.130129
    137 O20         6.5930    3.3680    0.6120 o         1 MOL     -0.471162
    138 C47         6.0370    3.2060   -2.6860 c3        1 MOL     -0.128708
    139 C48         6.2640    2.3440   -3.8760 c3        1 MOL      0.151460
    140 C49         5.8450    0.9170   -3.3890 c3        1 MOL     -0.108234
    141 H60         7.6120    2.4270   -1.4620 h1        1 MOL      0.013480
    142 H61         4.9640    3.3370   -2.5360 hc        1 MOL      0.047009
    143 H62         6.7040    4.0450   -2.8580 hc        1 MOL      0.047009
    144 H63         5.7540    2.7620   -4.7490 hc        1 MOL     -0.029670
    145 H64         7.3340    2.1880   -4.0420 hc        1 MOL     -0.029670
    146 H65         4.7860    0.6770   -3.4740 h1        1 MOL      0.010213
    147 H66         6.4970    0.1760   -3.8470 h1        1 MOL      0.010213
    148 N13         4.7310    2.1080    0.1790 n         1 MOL     -0.030700
    149 C50         4.1090    2.2860    1.5260 c3        1 MOL     -0.281313
    150 C51         4.9990    1.6450    2.5980 c         1 MOL      0.492943
    151 O21         4.9540    2.1450    3.7340 o         1 MOL     -0.583973
    152 C52         2.6600    1.7060    1.5740 c3        1 MOL      0.012886
    153 C53         1.7340    2.2760    0.5430 c3        1 MOL     -0.006281
    154 C54         0.3970    1.5680    0.4240 c         1 MOL      0.634567
    155 O22        -0.6410    2.2150    0.0960 o         1 MOL     -0.706555
    156 O23         0.1780    0.3640    0.6940 o         1 MOL     -0.706555
    157 H67         4.2060    1.5590   -0.4930 hn        1 MOL      0.136658
    158 H68         4.0510    3.3510    1.7480 h1        1 MOL      0.170965
    159 H69         2.2670    1.8260    2.5850 hc        1 MOL      0.047652
    160 H70         2.6230    0.6110    1.5150 hc        1 MOL      0.047652
    161 H71         2.2490    2.2740   -0.4200 hc        1 MOL      0.021551
    162 H72         1.4110    3.2930    0.7570 hc        1 MOL      0.021551
    163 N14         5.6960    0.5640    2.3970 n         1 MOL      0.008826
    164 C55         6.5790   -0.0320    3.4310 c3        1 MOL     -0.231570
    165 H73         7.1050   -0.8880    3.0100 h1        1 MOL      0.084881
    166 H74         7.3030    0.7110    3.7640 h1        1 MOL      0.084881
    167 H75         5.9770   -0.3580    4.2790 h1        1 MOL      0.084881
    168 H76         5.6550    0.0450    1.5300 hn        1 MOL      0.077838
    169 Ca1        -2.1310    0.0130   -0.3980 Ca        1 MOL      1.731525
    170 O24        -4.2880   -0.8450    1.4320 oh        1 MOL     -0.857142
    171 H77        -3.7360   -0.8620    2.2150 ho        1 MOL      0.418400
    172 H78        -5.1100   -0.4560    1.7240 ho        1 MOL      0.418400
    173 O25        -1.9240   -0.2870    2.5460 oh        1 MOL     -0.857142
    174 H79        -1.0080   -0.2600    2.2640 ho        1 MOL      0.418400
    175 H80        -1.9040    0.0680    3.4430 ho        1 MOL      0.418400
@<TRIPOS>BOND
     1    1    2 1   
     2    1    4 1   
     3    1    5 1   
     4    1    6 1   
     5    2    3 2   
     6    2    7 1   
     7    7    8 1   
     8    7   15 1   
     9    8    9 1   
    10    8   11 1   
    11    8   16 1   
    12    9   10 2   
    13    9   19 1   
    14   11   12 1   
    15   11   17 1   
    16   11   18 1   
    17   12   13 1   
    18   12   14 1   
    19   19   20 1   
    20   19   24 1   
    21   20   21 1   
    22   20   23 1   
    23   20   25 1   
    24   21   22 2   
    25   21   29 1   
    26   23   26 1   
    27   23   27 1   
    28   23   28 1   
    29   29   30 1   
    30   29   37 1   
    31   30   31 1   
    32   30   33 1   
    33   30   38 1   
    34   31   32 2   
    35   31   41 1   
    36   33   34 1   
    37   33   39 1   
    38   33   40 1   
    39   34   35 1   
    40   34   36 1   
    41   41   42 1   
    42   41   45 1   
    43   42   43 1   
    44   42   46 1   
    45   42   47 1   
    46   43   44 2   
    47   43   48 1   
    48   48   49 1   
    49   48   56 1   
    50   49   50 1   
    51   49   52 1   
    52   49   57 1   
    53   50   51 2   
    54   50   62 1   
    55   52   53 1   
    56   52   58 1   
    57   52   59 1   
    58   53   54 1   
    59   53   55 2   
    60   54   60 1   
    61   54   61 1   
    62   62   63 1   
    63   62   66 1   
    64   63   64 1   
    65   63   67 1   
    66   63   68 1   
    67   64   65 2   
    68   64   69 1   
    69   69   70 1   
    70   69   76 1   
    71   70   71 1   
    72   70   73 1   
    73   70   77 1   
    74   71   72 2   
    75   71   83 1   
    76   73   74 1   
    77   73   75 1   
    78   73   78 1   
    79   74   80 1   
    80   74   81 1   
    81   74   82 1   
    82   75   79 1   
    83   83   84 1   
    84   83   91 1   
    85   84   85 1   
    86   84   87 1   
    87   84   92 1   
    88   85   86 2   
    89   85  102 1   
    90   87   88 1   
    91   87   89 1   
    92   87   93 1   
    93   88   90 1   
    94   88   94 1   
    95   88   95 1   
    96   89   96 1   
    97   89   97 1   
    98   89   98 1   
    99   90   99 1   
   100   90  100 1   
   101   90  101 1   
   102  102  103 1   
   103  102  110 1   
   104  103  104 1   
   105  103  106 1   
   106  103  111 1   
   107  104  105 2   
   108  104  114 1   
   109  106  107 1   
   110  106  112 1   
   111  106  113 1   
   112  107  108 1   
   113  107  109 1   
   114  114  115 1   
   115  114  125 1   
   116  115  116 1   
   117  115  118 1   
   118  115  126 1   
   119  116  117 2   
   120  116  134 1   
   121  118  119 1   
   122  118  127 1   
   123  118  128 1   
   124  119  120 ar  
   125  119  121 ar  
   126  120  122 ar  
   127  120  129 1   
   128  121  123 ar  
   129  121  130 1   
   130  122  124 ar  
   131  122  131 1   
   132  123  124 ar  
   133  123  132 1   
   134  124  133 1   
   135  134  135 1   
   136  134  140 1   
   137  135  136 1   
   138  135  138 1   
   139  135  141 1   
   140  136  137 2   
   141  136  148 1   
   142  138  139 1   
   143  138  142 1   
   144  138  143 1   
   145  139  140 1   
   146  139  144 1   
   147  139  145 1   
   148  140  146 1   
   149  140  147 1   
   150  148  149 1   
   151  148  157 1   
   152  149  150 1   
   153  149  152 1   
   154  149  158 1   
   155  150  151 2   
   156  150  163 1   
   157  152  153 1   
   158  152  159 1   
   159  152  160 1   
   160  153  154 1   
   161  153  161 1   
   162  153  162 1   
   163  154  155 1   
   164  154  156 1   
   165  163  164 1   
   166  163  168 1   
   167  164  165 1   
   168  164  166 1   
   169  164  167 1   
   170  170  171 1   
   171  170  172 1   
   172  173  174 1   
   173  173  175 1   
@<TRIPOS>SUBSTRUCTURE
     1 MOL         1 TEMP              0 ****  ****    0 ROOT
