@<TRIPOS>MOLECULE
MOL
  189   185     1     0     0
SMALL
resp


@<TRIPOS>ATOM
      1 C1          0.4290    3.7340   -4.3890 c3        1 MOL     -0.376717
      2 C2          1.0840    3.3210   -3.0310 c         1 MOL      0.577609
      3 O1          0.6450    3.7110   -1.9690 o         1 MOL     -0.496113
      4 H1         -0.3370    4.4870   -4.2080 hc        1 MOL      0.097739
      5 H2          1.1910    4.1440   -5.0510 hc        1 MOL      0.097739
      6 H3         -0.0250    2.8600   -4.8540 hc        1 MOL      0.097739
      7 N1          2.1100    2.4370   -3.1590 n         1 MOL     -0.542136
      8 C3          2.8390    1.8200   -2.0610 c3        1 MOL      0.091975
      9 C4          3.7430    2.8380   -1.1600 c         1 MOL      0.406544
     10 O2          4.9640    2.7470   -1.2270 o         1 MOL     -0.455171
     11 C5          3.6070    0.6300   -2.5860 c3        1 MOL     -0.096634
     12 C6          4.1800   -0.1710   -1.4740 c         1 MOL      0.593057
     13 O3          5.2030   -0.8470   -1.6240 o         1 MOL     -0.611477
     14 O4          3.6700    0.0040   -0.3580 o         1 MOL     -0.611477
     15 H4          2.4580    2.2690   -4.0900 hn        1 MOL      0.313309
     16 H5          2.0380    1.4650   -1.3990 h1        1 MOL      0.087349
     17 H6          4.3730    0.8970   -3.3120 hc        1 MOL      0.036140
     18 H7          2.9530    0.0370   -3.2170 hc        1 MOL      0.036140
     19 N2          3.0970    3.7600   -0.5330 n         1 MOL     -0.264775
     20 C7          3.7560    4.8810    0.0680 c3        1 MOL     -0.075362
     21 C8          4.5110    4.6360    1.3940 c         1 MOL      0.591226
     22 O5          5.5040    5.3030    1.5920 o         1 MOL     -0.560819
     23 C9          2.8430    6.0830    0.2950 c3        1 MOL     -0.285589
     24 C10         2.1710    6.5450   -1.0250 c3        1 MOL      0.414822
     25 C11         1.2190    7.7530   -0.7070 c3        1 MOL     -0.094157
     26 C12         0.7460    8.5420   -1.8810 c3        1 MOL     -0.163329
     27 N3         -0.3390    7.7930   -2.6320 n4        1 MOL     -0.381780
     28 H8          2.1050    3.8980   -0.6750 hn        1 MOL      0.352827
     29 H9          4.4910    5.1870   -0.6800 h1        1 MOL      0.083516
     30 H10         3.4300    6.8820    0.7460 hc        1 MOL      0.073062
     31 H11         2.0570    5.8530    1.0200 hc        1 MOL      0.073062
     32 H12         1.6390    5.7190   -1.4860 hc        1 MOL     -0.106410
     33 H13         2.8700    6.9440   -1.7670 hc        1 MOL     -0.106410
     34 H14         1.7460    8.4460   -0.0490 hc        1 MOL      0.054588
     35 H15         0.4140    7.2440   -0.1870 hc        1 MOL      0.054588
     36 H16         1.6140    8.7990   -2.4790 hx        1 MOL      0.154357
     37 H17         0.3710    9.4690   -1.4320 hx        1 MOL      0.154357
     38 H18        -0.0490    7.2340   -3.4200 hn        1 MOL      0.337685
     39 H19        -0.8740    7.1710   -2.0420 hn        1 MOL      0.337685
     40 H20        -0.9810    8.4370   -3.0820 hn        1 MOL      0.337685
     41 N4          4.0660    3.6320    2.1330 n         1 MOL     -0.386059
     42 C13         4.8250    3.0470    3.2180 c3        1 MOL      0.088100
     43 C14         5.9000    2.0610    2.6740 c         1 MOL      0.477485
     44 O6          6.8850    1.8430    3.3420 o         1 MOL     -0.536563
     45 C15         3.9430    2.5390    4.3920 c3        1 MOL     -0.185234
     46 C16         2.9680    1.3580    4.0430 c         1 MOL      0.599690
     47 O7          2.4940    0.7210    5.0130 o         1 MOL     -0.608421
     48 O8          2.6020    1.1040    2.8340 o         1 MOL     -0.608421
     49 H21         3.2540    3.1340    1.8020 hn        1 MOL      0.248840
     50 H22         5.4000    3.8030    3.7520 h1        1 MOL      0.057988
     51 H23         3.3030    3.3830    4.6320 hc        1 MOL      0.057913
     52 H24         4.5350    2.2490    5.2640 hc        1 MOL      0.057913
     53 N5          5.7950    1.5200    1.4050 n         1 MOL     -0.075282
     54 C17         6.9680    0.9930    0.6620 c3        1 MOL     -0.045439
     55 C18         7.2750   -0.4920    0.9570 c         1 MOL      0.500732
     56 O9          8.4760   -0.8810    1.0380 o         1 MOL     -0.579733
     57 H25         5.0010    1.7840    0.8400 hn        1 MOL     -0.035770
     58 H26         7.8490    1.5910    0.9060 h1        1 MOL      0.071475
     59 H27         6.8170    1.0830   -0.4110 h1        1 MOL      0.071475
     60 N6          6.2110   -1.3130    1.1310 n         1 MOL     -0.147671
     61 C19         6.4130   -2.6630    1.6120 c3        1 MOL     -0.004259
     62 C20         6.3560   -3.7730    0.6040 c         1 MOL      0.410150
     63 O10         6.5170   -4.9320    0.9650 o         1 MOL     -0.540734
     64 C21         5.4610   -2.9040    2.7430 c3        1 MOL     -0.320425
     65 C22         3.9500   -2.6440    2.3470 c         1 MOL      0.645816
     66 O11         3.1150   -2.4000    3.2770 o         1 MOL     -0.645548
     67 O12         3.6200   -2.5900    1.0700 o         1 MOL     -0.645548
     68 H28         5.2390   -1.1020    0.9250 hn        1 MOL     -0.019771
     69 H29         7.4190   -2.7580    2.0120 h1        1 MOL      0.119588
     70 H30         5.7240   -2.2690    3.5820 hc        1 MOL      0.109898
     71 H31         5.5180   -3.9530    3.0400 hc        1 MOL      0.109898
     72 N7          6.2040   -3.4570   -0.6720 n         1 MOL     -0.193172
     73 C23         6.0040   -4.3360   -1.8000 c3        1 MOL     -0.254879
     74 C24         4.5910   -4.8720   -1.9740 c         1 MOL      0.576023
     75 O13         4.3390   -5.7970   -2.7470 o         1 MOL     -0.590936
     76 H32         6.0010   -2.4850   -0.8720 hn        1 MOL      0.232081
     77 H33         6.7510   -5.1130   -1.6560 h1        1 MOL      0.118444
     78 H34         6.1470   -3.8010   -2.7360 h1        1 MOL      0.118444
     79 N8          3.6330   -4.2830   -1.2600 n         1 MOL     -0.213691
     80 C25         2.1970   -4.5630   -1.6170 c3        1 MOL     -0.200663
     81 C26         1.3660   -3.2470   -1.6790 c         1 MOL      0.787095
     82 O14         1.7340   -2.2310   -1.0940 o         1 MOL     -0.657905
     83 C27         1.5580   -5.7370   -0.8240 c3        1 MOL      0.389072
     84 C28         2.1540   -7.0960   -1.1740 c3        1 MOL     -0.435389
     85 O15         1.6300   -5.5340    0.5760 oh        1 MOL     -0.653010
     86 H35         3.7530   -3.6330   -0.4980 hn        1 MOL      0.226538
     87 H36         2.1930   -4.9790   -2.6160 h1        1 MOL      0.065731
     88 H37         0.5170   -5.6910   -1.1590 h1        1 MOL      0.021154
     89 H38         2.5310   -5.7740    0.8260 ho        1 MOL      0.418568
     90 H39         2.2880   -7.1710   -2.2450 hc        1 MOL      0.118588
     91 H40         3.0450   -7.4200   -0.6380 hc        1 MOL      0.118588
     92 H41         1.3820   -7.8410   -0.9520 hc        1 MOL      0.118588
     93 N9          0.2480   -3.3130   -2.3270 n         1 MOL     -0.578935
     94 C29        -0.7240   -2.2360   -2.3520 c3        1 MOL     -0.140713
     95 C30        -2.0170   -2.8160   -1.7050 c         1 MOL      0.651794
     96 O16        -2.6100   -3.7880   -2.1160 o         1 MOL     -0.575515
     97 C31        -1.0180   -1.6830   -3.8180 c3        1 MOL      0.334405
     98 C32         0.2750   -1.2090   -4.5000 c3        1 MOL      0.060985
     99 C33        -2.0090   -0.4920   -3.7780 c3        1 MOL     -0.597646
    100 C34         0.1480   -1.1260   -6.0640 c3        1 MOL     -0.261776
    101 H42        -0.0010   -4.2060   -2.7420 hn        1 MOL      0.303393
    102 H43        -0.4350   -1.3550   -1.7780 h1        1 MOL      0.123755
    103 H44        -1.3810   -2.5330   -4.4020 hc        1 MOL     -0.020127
    104 H45         1.0760   -1.8760   -4.1930 hc        1 MOL      0.013015
    105 H46         0.5720   -0.2190   -4.1520 hc        1 MOL      0.013015
    106 H47        -2.9100   -0.8600   -3.2930 hc        1 MOL      0.128565
    107 H48        -1.5660    0.3450   -3.2160 hc        1 MOL      0.128565
    108 H49        -2.2760   -0.1880   -4.7900 hc        1 MOL      0.128565
    109 H50        -0.5810   -0.3870   -6.3970 hc        1 MOL      0.061037
    110 H51         1.0790   -0.7620   -6.4990 hc        1 MOL      0.061037
    111 H52        -0.1470   -2.1070   -6.4320 hc        1 MOL      0.061037
    112 N10        -2.4490   -2.1860   -0.6060 n         1 MOL     -0.561206
    113 C35        -3.7580   -2.5670   -0.0100 c3        1 MOL      0.250673
    114 C36        -4.9790   -1.8660   -0.6780 c         1 MOL      0.217691
    115 O17        -4.8070   -0.8700   -1.4600 o         1 MOL     -0.345305
    116 C37        -3.8660   -2.2340    1.4680 c3        1 MOL     -0.007598
    117 C38        -2.7640   -2.7400    2.3890 c3        1 MOL     -0.360121
    118 O18        -4.0190   -0.9210    1.7790 oh        1 MOL     -0.361005
    119 H53        -1.9120   -1.4470   -0.1810 hn        1 MOL      0.456504
    120 H54        -3.9270   -3.6240   -0.1870 h1        1 MOL      0.062854
    121 H55        -4.7190   -2.7220    1.9380 h1        1 MOL      0.030047
    122 H56        -3.4900   -0.7720    2.5680 ho        1 MOL      0.355290
    123 H57        -1.8740   -2.1300    2.2110 hc        1 MOL      0.102772
    124 H58        -3.1330   -2.6120    3.4030 hc        1 MOL      0.102772
    125 H59        -2.6440   -3.8070    2.2050 hc        1 MOL      0.102772
    126 N11        -6.1510   -2.3750   -0.3380 n         1 MOL     -0.111910
    127 C39        -7.4500   -1.8040   -0.9470 c3        1 MOL     -0.098217
    128 C40        -7.6780   -0.3250   -0.4930 c         1 MOL      0.458227
    129 O19        -8.3970    0.4230   -1.1270 o         1 MOL     -0.485988
    130 C41        -8.6700   -2.6650   -0.6270 c3        1 MOL      0.399541
    131 C42        -9.7320   -2.8130   -1.6520 c3        1 MOL     -0.218956
    132 O20        -8.2910   -4.0130   -0.1300 oh        1 MOL     -0.638229
    133 H60        -6.2070   -3.1750    0.2590 hn        1 MOL      0.177568
    134 H61        -7.1420   -1.7070   -1.9830 h1        1 MOL      0.112328
    135 H62        -9.1620   -2.2710    0.2660 h1        1 MOL     -0.040492
    136 H63        -9.0550   -4.3050    0.3670 ho        1 MOL      0.392958
    137 H64       -10.5860   -3.3790   -1.2680 hc        1 MOL      0.063627
    138 H65       -10.0740   -1.8170   -1.9300 hc        1 MOL      0.063627
    139 H66        -9.4500   -3.2870   -2.5950 hc        1 MOL      0.063627
    140 N12        -7.1000    0.0200    0.6450 n         1 MOL     -0.408663
    141 C43        -7.0580    1.3870    1.1990 c3        1 MOL      0.063111
    142 C44        -6.0360    2.2950    0.5600 c         1 MOL      0.350825
    143 O21        -6.3310    3.4560    0.2820 o         1 MOL     -0.514354
    144 C45        -6.8230    1.3530    2.7070 c3        1 MOL     -0.027115
    145 C46        -7.7970    0.4280    3.4560 c3        1 MOL     -0.008137
    146 C47        -7.7620    0.7530    4.9600 c3        1 MOL      0.114916
    147 C48        -8.3300   -0.3900    5.7300 c3        1 MOL      0.000283
    148 N13        -9.8570   -0.3450    5.6570 n4        1 MOL     -0.298129
    149 H67        -6.3820   -0.6100    0.9920 hn        1 MOL      0.153535
    150 H68        -8.0390    1.8550    1.0480 h1        1 MOL      0.101153
    151 H69        -7.1270    2.3540    2.9900 hc        1 MOL      0.001761
    152 H70        -5.7490    1.2120    2.8370 hc        1 MOL      0.001761
    153 H71        -7.6030   -0.6360    3.3200 hc        1 MOL      0.014955
    154 H72        -8.7750    0.6600    3.0480 hc        1 MOL      0.014955
    155 H73        -8.2150    1.7030    5.2590 hc        1 MOL      0.012548
    156 H74        -6.7000    0.8210    5.2080 hc        1 MOL      0.012548
    157 H75        -8.0930   -0.3290    6.7820 hx        1 MOL      0.080371
    158 H76        -7.9560   -1.3620    5.3930 hx        1 MOL      0.080371
    159 H77       -10.2660    0.5030    6.0310 hn        1 MOL      0.260033
    160 H78       -10.2550   -0.5800    4.7690 hn        1 MOL      0.260033
    161 H79       -10.1980   -1.0180    6.3350 hn        1 MOL      0.260033
    162 N14        -4.8720    1.8330    0.1440 n         1 MOL     -0.005714
    163 C49        -3.8580    2.6040   -0.5570 c3        1 MOL     -0.197150
    164 C50        -4.4210    2.8700   -2.0090 c         1 MOL      0.461280
    165 O22        -4.3880    4.0560   -2.3870 o         1 MOL     -0.566182
    166 C51        -2.4800    1.9340   -0.6560 c3        1 MOL      0.344143
    167 C52        -1.7200    1.9650    0.6150 c3        1 MOL     -0.461787
    168 C53        -0.5280    1.0050    0.5170 c         1 MOL      1.032533
    169 O23        -0.6170   -0.2100    0.3470 o         1 MOL     -0.917894
    170 O24         0.6120    1.5330    0.6680 o         1 MOL     -0.917894
    171 H80        -4.6380    0.8610    0.3230 hn        1 MOL      0.083726
    172 H81        -3.8230    3.5830   -0.0810 h1        1 MOL      0.103924
    173 H82        -2.0820    2.5190   -1.4800 hc        1 MOL     -0.057969
    174 H83        -2.6620    0.9050   -0.9540 hc        1 MOL     -0.057969
    175 H84        -2.2950    1.5240    1.4260 hc        1 MOL      0.062721
    176 H85        -1.3920    2.9970    0.7790 hc        1 MOL      0.062721
    177 N15        -4.9820    1.8740   -2.6600 n         1 MOL     -0.066171
    178 C54        -5.7140    2.0150   -3.8910 c3        1 MOL     -0.324256
    179 H86        -6.4850    2.7770   -3.7700 h1        1 MOL      0.116973
    180 H87        -5.0320    2.3120   -4.6880 h1        1 MOL      0.116973
    181 H88        -6.1810    1.0640   -4.1480 h1        1 MOL      0.116973
    182 H89        -5.0000    0.9580   -2.2380 hn        1 MOL      0.142130
    183 Ca1         1.7550   -0.7480    1.1940 Ca        1 MOL      1.747627
    184 O25         0.0950   -0.4910    3.2170 oh        1 MOL     -0.750277
    185 H90        -0.7600   -0.1950    2.8920 ho        1 MOL      0.374730
    186 H91         0.2030   -0.0320    4.0500 ho        1 MOL      0.374730
    187 O26         0.5900   -3.1030    1.8670 oh        1 MOL     -0.750277
    188 H92         0.9050   -3.9160    1.4630 ho        1 MOL      0.374730
    189 H93         0.3610   -3.3560    2.7690 ho        1 MOL      0.374730
@<TRIPOS>BOND
     1    1    2 1   
     2    1    4 1   
     3    1    5 1   
     4    1    6 1   
     5    2    3 2   
     6    2    7 1   
     7    7    8 1   
     8    7   15 1   
     9    8    9 1   
    10    8   11 1   
    11    8   16 1   
    12    9   10 2   
    13    9   19 1   
    14   11   12 1   
    15   11   17 1   
    16   11   18 1   
    17   12   13 1   
    18   12   14 1   
    19   19   20 1   
    20   19   28 1   
    21   20   21 1   
    22   20   23 1   
    23   20   29 1   
    24   21   22 2   
    25   21   41 1   
    26   23   24 1   
    27   23   30 1   
    28   23   31 1   
    29   24   25 1   
    30   24   32 1   
    31   24   33 1   
    32   25   26 1   
    33   25   34 1   
    34   25   35 1   
    35   26   27 1   
    36   26   36 1   
    37   26   37 1   
    38   27   38 1   
    39   27   39 1   
    40   27   40 1   
    41   41   42 1   
    42   41   49 1   
    43   42   43 1   
    44   42   45 1   
    45   42   50 1   
    46   43   44 2   
    47   43   53 1   
    48   45   46 1   
    49   45   51 1   
    50   45   52 1   
    51   46   47 1   
    52   46   48 1   
    53   53   54 1   
    54   53   57 1   
    55   54   55 1   
    56   54   58 1   
    57   54   59 1   
    58   55   56 2   
    59   55   60 1   
    60   60   61 1   
    61   60   68 1   
    62   61   62 1   
    63   61   64 1   
    64   61   69 1   
    65   62   63 2   
    66   62   72 1   
    67   64   65 1   
    68   64   70 1   
    69   64   71 1   
    70   65   66 1   
    71   65   67 1   
    72   72   73 1   
    73   72   76 1   
    74   73   74 1   
    75   73   77 1   
    76   73   78 1   
    77   74   75 2   
    78   74   79 1   
    79   79   80 1   
    80   79   86 1   
    81   80   81 1   
    82   80   83 1   
    83   80   87 1   
    84   81   82 2   
    85   81   93 1   
    86   83   84 1   
    87   83   85 1   
    88   83   88 1   
    89   84   90 1   
    90   84   91 1   
    91   84   92 1   
    92   85   89 1   
    93   93   94 1   
    94   93  101 1   
    95   94   95 1   
    96   94   97 1   
    97   94  102 1   
    98   95   96 2   
    99   95  112 1   
   100   97   98 1   
   101   97   99 1   
   102   97  103 1   
   103   98  100 1   
   104   98  104 1   
   105   98  105 1   
   106   99  106 1   
   107   99  107 1   
   108   99  108 1   
   109  100  109 1   
   110  100  110 1   
   111  100  111 1   
   112  112  113 1   
   113  112  119 1   
   114  113  114 1   
   115  113  116 1   
   116  113  120 1   
   117  114  115 2   
   118  114  126 1   
   119  116  117 1   
   120  116  118 1   
   121  116  121 1   
   122  117  123 1   
   123  117  124 1   
   124  117  125 1   
   125  118  122 1   
   126  126  127 1   
   127  126  133 1   
   128  127  128 1   
   129  127  130 1   
   130  127  134 1   
   131  128  129 2   
   132  128  140 1   
   133  130  131 1   
   134  130  132 1   
   135  130  135 1   
   136  131  137 1   
   137  131  138 1   
   138  131  139 1   
   139  132  136 1   
   140  140  141 1   
   141  140  149 1   
   142  141  142 1   
   143  141  144 1   
   144  141  150 1   
   145  142  143 2   
   146  142  162 1   
   147  144  145 1   
   148  144  151 1   
   149  144  152 1   
   150  145  146 1   
   151  145  153 1   
   152  145  154 1   
   153  146  147 1   
   154  146  155 1   
   155  146  156 1   
   156  147  148 1   
   157  147  157 1   
   158  147  158 1   
   159  148  159 1   
   160  148  160 1   
   161  148  161 1   
   162  162  163 1   
   163  162  171 1   
   164  163  164 1   
   165  163  166 1   
   166  163  172 1   
   167  164  165 2   
   168  164  177 1   
   169  166  167 1   
   170  166  173 1   
   171  166  174 1   
   172  167  168 1   
   173  167  175 1   
   174  167  176 1   
   175  168  169 1   
   176  168  170 1   
   177  177  178 1   
   178  177  182 1   
   179  178  179 1   
   180  178  180 1   
   181  178  181 1   
   182  184  185 1   
   183  184  186 1   
   184  187  188 1   
   185  187  189 1   
@<TRIPOS>SUBSTRUCTURE
     1 MOL         1 TEMP              0 ****  ****    0 ROOT
