@<TRIPOS>MOLECULE
MOL
  189   185     1     0     0
SMALL
resp


@<TRIPOS>ATOM
      1 C1         -0.2810    2.0250    6.4790 c3        1 MOL     -0.454764
      2 C2         -0.5290    1.7510    4.9990 c         1 MOL      0.779200
      3 O1          0.4040    1.7820    4.2450 o         1 MOL     -0.654120
      4 H1         -0.6700    1.1960    7.0710 hc        1 MOL      0.117524
      5 H2          0.7890    2.1270    6.6570 hc        1 MOL      0.117524
      6 H3         -0.7870    2.9460    6.7690 hc        1 MOL      0.117524
      7 N1         -1.8150    1.5400    4.5560 n         1 MOL     -0.702302
      8 C3         -2.2260    1.4100    3.1070 c3        1 MOL      0.159946
      9 C4         -2.3490    2.8500    2.5770 c         1 MOL      0.490100
     10 O2         -3.1860    3.6340    2.9960 o         1 MOL     -0.575309
     11 C5         -3.5370    0.5510    3.0470 c3        1 MOL     -0.242675
     12 C6         -4.2370    0.3890    1.6690 c         1 MOL      0.875279
     13 O3         -5.4160   -0.1040    1.6960 o         1 MOL     -0.711223
     14 O4         -3.6540    0.6260    0.6060 o         1 MOL     -0.711223
     15 H4         -2.5250    1.4780    5.2660 hn        1 MOL      0.362196
     16 H5         -1.5270    0.9200    2.4180 h1        1 MOL     -0.023699
     17 H6         -4.3200    0.8680    3.7350 hc        1 MOL      0.057685
     18 H7         -3.2010   -0.4500    3.3190 hc        1 MOL      0.057685
     19 N2         -1.5370    3.2810    1.6630 n         1 MOL     -0.111449
     20 C7         -1.3830    4.7200    1.2760 c3        1 MOL     -0.186127
     21 C8         -2.2760    5.1110    0.0890 c         1 MOL      0.599177
     22 O5         -2.3910    6.3050   -0.1920 o         1 MOL     -0.579114
     23 C9          0.1050    4.9580    0.9430 c3        1 MOL      0.028735
     24 C10         1.0300    4.8380    2.1150 c3        1 MOL      0.212460
     25 C11         2.4360    5.4450    1.7360 c3        1 MOL     -0.287308
     26 C12         3.4690    5.3710    2.8810 c3        1 MOL      0.284105
     27 N3          4.5680    6.3170    2.6490 n4        1 MOL     -0.508922
     28 H8         -0.8840    2.6420    1.2170 hn        1 MOL      0.264439
     29 H9         -1.6980    5.4630    2.0070 h1        1 MOL      0.110975
     30 H10         0.0740    6.0120    0.6500 hc        1 MOL     -0.029935
     31 H11         0.4020    4.3060    0.1220 hc        1 MOL     -0.029935
     32 H12         1.0800    3.7640    2.3290 hc        1 MOL     -0.004327
     33 H13         0.5840    5.3240    2.9810 hc        1 MOL     -0.004327
     34 H14         2.1590    6.4770    1.5270 hc        1 MOL      0.071420
     35 H15         2.9100    5.1070    0.8210 hc        1 MOL      0.071420
     36 H16         3.8920    4.3860    3.0330 hx        1 MOL      0.030305
     37 H17         2.9480    5.6330    3.8060 hx        1 MOL      0.030305
     38 H18         5.1650    5.9600    1.9240 hn        1 MOL      0.355411
     39 H19         4.2310    7.2570    2.5170 hn        1 MOL      0.355411
     40 H20         5.2710    6.2970    3.3810 hn        1 MOL      0.355411
     41 N4         -2.9720    4.2500   -0.6830 n         1 MOL     -0.297624
     42 C13        -3.7740    4.4760   -1.9130 c3        1 MOL     -0.127503
     43 C14        -5.1710    3.7210   -1.8400 c         1 MOL      0.493438
     44 O6         -5.9230    3.7610   -2.8140 o         1 MOL     -0.496748
     45 C15        -2.8470    4.1990   -3.1100 c3        1 MOL     -0.075042
     46 C16        -2.1350    2.8960   -3.1400 c         1 MOL      0.918648
     47 O7         -1.2920    2.7400   -4.0650 o         1 MOL     -0.798138
     48 O8         -2.3860    1.9000   -2.4190 o         1 MOL     -0.798138
     49 H21        -2.7540    3.2940   -0.4190 hn        1 MOL      0.029705
     50 H22        -4.0800    5.5220   -1.9310 h1        1 MOL      0.127274
     51 H23        -2.0460    4.9370   -3.1680 hc        1 MOL      0.025299
     52 H24        -3.3570    4.1920   -4.0720 hc        1 MOL      0.025299
     53 N5         -5.5240    3.0860   -0.6910 n         1 MOL     -0.213844
     54 C17        -6.7600    2.3920   -0.3460 c3        1 MOL     -0.109395
     55 C18        -7.1800    1.2070   -1.2510 c         1 MOL      0.602581
     56 O9         -8.0920    1.3690   -2.0810 o         1 MOL     -0.564803
     57 H25        -4.7610    3.0680   -0.0150 hn        1 MOL      0.191552
     58 H26        -7.5240    3.1580   -0.4410 h1        1 MOL      0.067246
     59 H27        -6.7850    1.9400    0.6440 h1        1 MOL      0.067246
     60 N6         -6.6050   -0.0330   -1.1360 n         1 MOL     -0.305113
     61 C19        -6.9760   -1.2860   -1.7630 c3        1 MOL     -0.002056
     62 C20        -6.9490   -2.5030   -0.7980 c         1 MOL      0.473311
     63 O10        -7.1530   -3.6540   -1.1880 o         1 MOL     -0.551759
     64 C21        -6.0250   -1.4680   -2.9840 c3        1 MOL     -0.325202
     65 C22        -4.5130   -1.3380   -2.5900 c         1 MOL      0.697245
     66 O11        -4.1160   -1.7390   -1.4520 o         1 MOL     -0.670670
     67 O12        -3.6920   -0.8800   -3.4450 o         1 MOL     -0.670670
     68 H28        -5.9860   -0.1270   -0.3410 hn        1 MOL      0.043054
     69 H29        -7.9650   -1.1250   -2.2060 h1        1 MOL      0.109770
     70 H30        -6.2640   -0.5320   -3.4750 hc        1 MOL      0.112230
     71 H31        -6.3740   -2.3310   -3.5420 hc        1 MOL      0.112230
     72 N7         -6.7630   -2.3570    0.4840 n         1 MOL     -0.396738
     73 C23        -6.8230   -3.5000    1.4740 c3        1 MOL     -0.107776
     74 C24        -5.4550   -4.1790    1.6260 c         1 MOL      0.438194
     75 O13        -5.4410   -5.2930    2.0650 o         1 MOL     -0.543535
     76 H32        -6.4450   -1.4470    0.7980 hn        1 MOL      0.330973
     77 H33        -7.5930   -4.2170    1.1870 h1        1 MOL      0.111827
     78 H34        -7.1120   -3.0810    2.4400 h1        1 MOL      0.111827
     79 N8         -4.4400   -3.6710    0.9460 n         1 MOL      0.008803
     80 C25        -3.1050   -4.4080    0.9570 c3        1 MOL     -0.408578
     81 C26        -1.9320   -3.4500    1.1550 c         1 MOL      0.822535
     82 O14        -2.0740   -2.2330    0.9310 o         1 MOL     -0.711910
     83 C27        -3.0040   -5.2000   -0.4060 c3        1 MOL      0.448072
     84 C28        -3.9540   -6.3550   -0.6340 c3        1 MOL     -0.622566
     85 O15        -3.1190   -4.3640   -1.4680 oh        1 MOL     -0.582521
     86 H35        -4.4140   -2.7380    0.5620 hn        1 MOL      0.092203
     87 H36        -3.1260   -5.1390    1.7720 h1        1 MOL      0.137155
     88 H37        -2.0330   -5.6670   -0.5230 h1        1 MOL      0.011930
     89 H38        -3.8380   -3.7600   -1.2750 ho        1 MOL      0.395060
     90 H39        -3.6140   -6.9030   -1.5150 hc        1 MOL      0.168778
     91 H40        -3.9970   -6.9200    0.2970 hc        1 MOL      0.168778
     92 H41        -4.9920   -6.0550   -0.7950 hc        1 MOL      0.168778
     93 N9         -0.7530   -4.0060    1.4540 n         1 MOL     -0.633489
     94 C29         0.5330   -3.2290    1.5500 c3        1 MOL      0.137335
     95 C30         1.5390   -3.6860    0.4820 c         1 MOL      0.465872
     96 O16         1.8510   -4.8380    0.4380 o         1 MOL     -0.549952
     97 C31         1.0490   -3.4140    3.0060 c3        1 MOL      0.046994
     98 C32         0.0470   -3.0960    4.0910 c3        1 MOL      0.124285
     99 C33         2.3250   -2.5990    3.2600 c3        1 MOL     -0.159889
    100 C34        -0.3420   -1.6430    4.4490 c3        1 MOL     -0.066128
    101 H42        -0.7230   -5.0180    1.4700 hn        1 MOL      0.311894
    102 H43         0.2820   -2.1770    1.4440 h1        1 MOL      0.108089
    103 H44         1.3780   -4.4290    3.2220 hc        1 MOL      0.015555
    104 H45         0.2640   -3.5890    5.0420 hc        1 MOL     -0.042200
    105 H46        -0.8790   -3.6230    3.8540 hc        1 MOL     -0.042200
    106 H47         2.5830   -2.7080    4.3160 hc        1 MOL      0.029072
    107 H48         3.1490   -2.8800    2.5980 hc        1 MOL      0.029072
    108 H49         2.0760   -1.5530    3.0910 hc        1 MOL      0.029072
    109 H50         0.6020   -1.2400    4.8150 hc        1 MOL      0.032138
    110 H51        -0.6070   -1.1620    3.5050 hc        1 MOL      0.032138
    111 H52        -1.0990   -1.5530    5.2250 hc        1 MOL      0.032138
    112 N10         2.0800   -2.8270   -0.3270 n         1 MOL     -0.102871
    113 C35         3.1690   -3.0660   -1.2430 c3        1 MOL     -0.005522
    114 C36         4.6170   -3.0200   -0.5940 c         1 MOL      0.387233
    115 O17         4.7030   -2.3710    0.4930 o         1 MOL     -0.353718
    116 C37         3.2210   -2.0460   -2.4370 c3        1 MOL      0.178626
    117 C38         2.1690   -2.0950   -3.5070 c3        1 MOL     -0.222456
    118 O18         3.2390   -0.8050   -1.8700 oh        1 MOL     -0.415639
    119 H53         1.6480   -1.9240   -0.3440 hn        1 MOL      0.052920
    120 H54         2.9870   -4.0680   -1.6330 h1        1 MOL      0.063461
    121 H55         4.1510   -2.2880   -2.9600 h1        1 MOL      0.022889
    122 H56         2.3480   -0.6480   -1.5440 ho        1 MOL      0.283157
    123 H57         1.2050   -1.9150   -3.0420 hc        1 MOL      0.062118
    124 H58         2.3360   -1.3570   -4.2900 hc        1 MOL      0.062118
    125 H59         2.1790   -3.0690   -3.9950 hc        1 MOL      0.062118
    126 N11         5.7750   -3.4480   -1.1860 n         1 MOL     -0.375512
    127 C39         7.1330   -3.0000   -0.6760 c3        1 MOL      0.052652
    128 C40         7.1980   -1.4970   -0.3920 c         1 MOL      0.341788
    129 O19         7.8070   -1.0020    0.6090 o         1 MOL     -0.481032
    130 C41         8.2630   -3.5450   -1.6130 c3        1 MOL      0.536632
    131 C42         9.5770   -3.6620   -0.9670 c3        1 MOL     -0.439092
    132 O20         7.9350   -4.8140   -2.1360 oh        1 MOL     -0.656296
    133 H60         5.7270   -3.9480   -2.0590 hn        1 MOL      0.245829
    134 H61         7.2410   -3.4340    0.3220 h1        1 MOL      0.082773
    135 H62         8.2660   -2.8280   -2.4250 h1        1 MOL     -0.095331
    136 H63         8.4030   -5.0520   -2.9370 ho        1 MOL      0.413454
    137 H64         9.3770   -4.2000   -0.0470 hc        1 MOL      0.113255
    138 H65        10.2030   -4.2960   -1.6090 hc        1 MOL      0.113255
    139 H66        10.0620   -2.7240   -0.6860 hc        1 MOL      0.113255
    140 N12         6.6260   -0.8140   -1.3510 n         1 MOL     -0.223123
    141 C43         6.5170    0.7340   -1.4370 c3        1 MOL     -0.215008
    142 C44         5.6150    1.4820   -0.4750 c         1 MOL      0.540044
    143 O21         5.7810    2.7070   -0.3700 o         1 MOL     -0.594076
    144 C45         6.0290    0.9300   -2.8830 c3        1 MOL      0.090023
    145 C46         5.7460    2.3550   -3.4290 c3        1 MOL     -0.041339
    146 C47         5.0750    2.3600   -4.7920 c3        1 MOL     -0.022273
    147 C48         4.7120    3.7580   -5.2480 c3        1 MOL      0.011681
    148 N13         3.4860    4.2190   -4.6610 n4        1 MOL     -0.307596
    149 H67         6.0220   -1.3350   -1.9770 hn        1 MOL      0.164521
    150 H68         7.5180    1.1470   -1.3570 h1        1 MOL      0.169996
    151 H69         5.1470    0.3120   -2.9930 hc        1 MOL      0.017154
    152 H70         6.8080    0.6210   -3.5820 hc        1 MOL      0.017154
    153 H71         6.7390    2.8010   -3.5470 hc        1 MOL      0.010963
    154 H72         5.1610    2.9030   -2.7010 hc        1 MOL      0.010963
    155 H73         4.1870    1.7490   -4.6100 hc        1 MOL      0.046896
    156 H74         5.7150    1.7960   -5.4840 hc        1 MOL      0.046896
    157 H75         4.6100    3.6530   -6.3340 hx        1 MOL      0.085586
    158 H76         5.4200    4.5650   -5.0740 hx        1 MOL      0.085586
    159 H77         2.9650    3.4370   -4.2980 hn        1 MOL      0.324739
    160 H78         3.7110    4.8600   -3.9220 hn        1 MOL      0.324739
    161 H79         2.9040    4.7980   -5.2470 hn        1 MOL      0.324739
    162 N14         4.9090    0.7220    0.3290 n         1 MOL     -0.133510
    163 C49         4.1490    1.2240    1.5140 c3        1 MOL     -0.161154
    164 C50         4.7930    0.9090    2.8570 c         1 MOL      0.523079
    165 O22         4.4980    1.5130    3.8930 o         1 MOL     -0.554085
    166 C51         2.6530    0.7250    1.3770 c3        1 MOL     -0.097176
    167 C52         1.9530    1.4570    0.2090 c3        1 MOL     -0.020378
    168 C53         0.6910    0.7120   -0.0960 c         1 MOL      0.603209
    169 O23        -0.4470    1.1320    0.2090 o         1 MOL     -0.659816
    170 O24         0.8180   -0.3460   -0.6640 o         1 MOL     -0.659816
    171 H80         4.8650   -0.2730    0.1370 hn        1 MOL      0.009173
    172 H81         4.1440    2.3140    1.5450 h1        1 MOL      0.098434
    173 H82         2.1190    0.8360    2.3130 hc        1 MOL      0.122105
    174 H83         2.6480   -0.3500    1.2290 hc        1 MOL      0.122105
    175 H84         2.5730    1.6050   -0.6740 hc        1 MOL     -0.001554
    176 H85         1.8400    2.4760    0.5790 hc        1 MOL     -0.001554
    177 N15         5.7780    0.0640    2.8400 n         1 MOL     -0.270705
    178 C54         6.1810   -0.6600    4.0490 c3        1 MOL     -0.144924
    179 H86         5.2940   -0.9350    4.6180 h1        1 MOL      0.091068
    180 H87         6.7250   -1.5620    3.7680 h1        1 MOL      0.091068
    181 H88         6.8200   -0.0230    4.6590 h1        1 MOL      0.091068
    182 H89         5.9890   -0.3450    1.9460 hn        1 MOL      0.218555
    183 Ca1        -1.9900   -0.2780   -1.1780 Ca        1 MOL      1.816122
    184 O25        -1.2250   -2.3640   -2.5000 oh        1 MOL     -0.827044
    185 H90        -1.7180   -3.1810   -2.3840 ho        1 MOL      0.386614
    186 H91        -1.0570   -2.3210   -3.4410 ho        1 MOL      0.386614
    187 O26        -0.7980    0.1770   -3.6220 oh        1 MOL     -0.827044
    188 H92        -1.0370    1.0810   -3.8560 ho        1 MOL      0.386614
    189 H93        -0.4380   -0.1890   -4.4260 ho        1 MOL      0.386614
@<TRIPOS>BOND
     1    1    2 1   
     2    1    4 1   
     3    1    5 1   
     4    1    6 1   
     5    2    3 2   
     6    2    7 1   
     7    7    8 1   
     8    7   15 1   
     9    8    9 1   
    10    8   11 1   
    11    8   16 1   
    12    9   10 2   
    13    9   19 1   
    14   11   12 1   
    15   11   17 1   
    16   11   18 1   
    17   12   13 1   
    18   12   14 1   
    19   19   20 1   
    20   19   28 1   
    21   20   21 1   
    22   20   23 1   
    23   20   29 1   
    24   21   22 2   
    25   21   41 1   
    26   23   24 1   
    27   23   30 1   
    28   23   31 1   
    29   24   25 1   
    30   24   32 1   
    31   24   33 1   
    32   25   26 1   
    33   25   34 1   
    34   25   35 1   
    35   26   27 1   
    36   26   36 1   
    37   26   37 1   
    38   27   38 1   
    39   27   39 1   
    40   27   40 1   
    41   41   42 1   
    42   41   49 1   
    43   42   43 1   
    44   42   45 1   
    45   42   50 1   
    46   43   44 2   
    47   43   53 1   
    48   45   46 1   
    49   45   51 1   
    50   45   52 1   
    51   46   47 1   
    52   46   48 1   
    53   53   54 1   
    54   53   57 1   
    55   54   55 1   
    56   54   58 1   
    57   54   59 1   
    58   55   56 2   
    59   55   60 1   
    60   60   61 1   
    61   60   68 1   
    62   61   62 1   
    63   61   64 1   
    64   61   69 1   
    65   62   63 2   
    66   62   72 1   
    67   64   65 1   
    68   64   70 1   
    69   64   71 1   
    70   65   66 1   
    71   65   67 1   
    72   72   73 1   
    73   72   76 1   
    74   73   74 1   
    75   73   77 1   
    76   73   78 1   
    77   74   75 2   
    78   74   79 1   
    79   79   80 1   
    80   79   86 1   
    81   80   81 1   
    82   80   83 1   
    83   80   87 1   
    84   81   82 2   
    85   81   93 1   
    86   83   84 1   
    87   83   85 1   
    88   83   88 1   
    89   84   90 1   
    90   84   91 1   
    91   84   92 1   
    92   85   89 1   
    93   93   94 1   
    94   93  101 1   
    95   94   95 1   
    96   94   97 1   
    97   94  102 1   
    98   95   96 2   
    99   95  112 1   
   100   97   98 1   
   101   97   99 1   
   102   97  103 1   
   103   98  100 1   
   104   98  104 1   
   105   98  105 1   
   106   99  106 1   
   107   99  107 1   
   108   99  108 1   
   109  100  109 1   
   110  100  110 1   
   111  100  111 1   
   112  112  113 1   
   113  112  119 1   
   114  113  114 1   
   115  113  116 1   
   116  113  120 1   
   117  114  115 2   
   118  114  126 1   
   119  116  117 1   
   120  116  118 1   
   121  116  121 1   
   122  117  123 1   
   123  117  124 1   
   124  117  125 1   
   125  118  122 1   
   126  126  127 1   
   127  126  133 1   
   128  127  128 1   
   129  127  130 1   
   130  127  134 1   
   131  128  129 2   
   132  128  140 1   
   133  130  131 1   
   134  130  132 1   
   135  130  135 1   
   136  131  137 1   
   137  131  138 1   
   138  131  139 1   
   139  132  136 1   
   140  140  141 1   
   141  140  149 1   
   142  141  142 1   
   143  141  144 1   
   144  141  150 1   
   145  142  143 2   
   146  142  162 1   
   147  144  145 1   
   148  144  151 1   
   149  144  152 1   
   150  145  146 1   
   151  145  153 1   
   152  145  154 1   
   153  146  147 1   
   154  146  155 1   
   155  146  156 1   
   156  147  148 1   
   157  147  157 1   
   158  147  158 1   
   159  148  159 1   
   160  148  160 1   
   161  148  161 1   
   162  162  163 1   
   163  162  171 1   
   164  163  164 1   
   165  163  166 1   
   166  163  172 1   
   167  164  165 2   
   168  164  177 1   
   169  166  167 1   
   170  166  173 1   
   171  166  174 1   
   172  167  168 1   
   173  167  175 1   
   174  167  176 1   
   175  168  169 1   
   176  168  170 1   
   177  177  178 1   
   178  177  182 1   
   179  178  179 1   
   180  178  180 1   
   181  178  181 1   
   182  184  185 1   
   183  184  186 1   
   184  187  188 1   
   185  187  189 1   
@<TRIPOS>SUBSTRUCTURE
     1 MOL         1 TEMP              0 ****  ****    0 ROOT
