@<TRIPOS>MOLECULE
MOL
  189   185     1     0     0
SMALL
resp


@<TRIPOS>ATOM
      1 C1          0.1180    2.0210    5.9940 c3        1 MOL     -0.364177
      2 C2         -0.1830    1.7750    4.5400 c         1 MOL      0.552452
      3 O1          0.5760    2.2910    3.7260 o         1 MOL     -0.558068
      4 H1          0.3050    3.0830    6.1510 hc        1 MOL      0.099506
      5 H2         -0.7320    1.7090    6.5990 hc        1 MOL      0.099506
      6 H3          1.0010    1.4500    6.2850 hc        1 MOL      0.099506
      7 N1         -1.3720    1.2360    4.2490 n         1 MOL     -0.340513
      8 C3         -2.0660    1.2030    2.9020 c3        1 MOL      0.009490
      9 C4         -2.3130    2.5720    2.3560 c         1 MOL      0.353372
     10 O2         -3.3530    3.1780    2.6200 o         1 MOL     -0.494399
     11 C5         -3.3580    0.4180    3.0000 c3        1 MOL     -0.224851
     12 C6         -4.1020    0.2950    1.6870 c         1 MOL      0.701990
     13 O3         -3.4870    0.4920    0.6300 o         1 MOL     -0.634446
     14 O4         -5.2830   -0.1420    1.7230 o         1 MOL     -0.634446
     15 H4         -1.8720    0.8490    5.0430 hn        1 MOL      0.286054
     16 H5         -1.4040    0.7200    2.1910 h1        1 MOL      0.001906
     17 H6         -4.1160    0.6990    3.7370 hc        1 MOL      0.060956
     18 H7         -3.0690   -0.6010    3.2520 hc        1 MOL      0.060956
     19 N2         -1.2760    3.1900    1.8940 n         1 MOL      0.035113
     20 C7         -1.1930    4.6550    1.7110 c3        1 MOL     -0.220156
     21 C8         -2.1330    5.1670    0.6140 c         1 MOL      0.402536
     22 O5         -2.7350    6.2380    0.7980 o         1 MOL     -0.557317
     23 C9          0.2730    5.0150    1.4230 c3        1 MOL      0.093530
     24 C10         0.4330    6.4580    1.0750 c3        1 MOL      0.148938
     25 C11         1.8860    6.8500    0.9710 c3        1 MOL     -0.230073
     26 C12         1.9970    8.0460    0.0190 c3        1 MOL      0.125970
     27 N3          3.2830    8.7760    0.1790 n4        1 MOL     -0.482578
     28 H8         -0.4870    2.5990    1.6990 hn        1 MOL      0.210744
     29 H9         -1.4540    5.2060    2.6170 h1        1 MOL      0.121525
     30 H10         0.5840    4.4110    0.5680 hc        1 MOL     -0.024651
     31 H11         0.9360    4.6980    2.2260 hc        1 MOL     -0.024651
     32 H12         0.0330    7.0940    1.8690 hc        1 MOL     -0.004720
     33 H13        -0.0710    6.6840    0.1430 hc        1 MOL     -0.004720
     34 H14         2.5160    6.0670    0.5240 hc        1 MOL      0.086418
     35 H15         2.1950    7.1290    1.9790 hc        1 MOL      0.086418
     36 H16         1.2050    8.7370    0.3080 hx        1 MOL      0.072522
     37 H17         2.0180    7.6930   -1.0140 hx        1 MOL      0.072522
     38 H18         4.0290    8.2640   -0.2730 hn        1 MOL      0.352841
     39 H19         3.2080    9.7220   -0.1620 hn        1 MOL      0.352841
     40 H20         3.4410    8.8100    1.1690 hn        1 MOL      0.352841
     41 N4         -2.3240    4.4600   -0.5030 n         1 MOL     -0.151004
     42 C13        -3.2180    4.9000   -1.5850 c3        1 MOL      0.028059
     43 C14        -4.6540    4.4170   -1.3630 c         1 MOL      0.457711
     44 O6         -5.5410    5.0060   -1.9260 o         1 MOL     -0.560825
     45 C15        -2.8270    4.4200   -2.9710 c3        1 MOL     -0.325270
     46 C16        -2.4260    2.9550   -3.0350 c         1 MOL      0.739472
     47 O7         -2.6770    2.1880   -2.0450 o         1 MOL     -0.698354
     48 O8         -1.8570    2.4800   -4.0800 o         1 MOL     -0.698354
     49 H21        -1.8970    3.5670   -0.7180 hn        1 MOL      0.135987
     50 H22        -3.2360    5.9890   -1.5670 h1        1 MOL      0.069778
     51 H23        -2.0050    5.0260   -3.3650 hc        1 MOL      0.099564
     52 H24        -3.5890    4.6410   -3.7120 hc        1 MOL      0.099564
     53 N5         -4.8460    3.3330   -0.6260 n         1 MOL      0.040866
     54 C17        -6.0400    2.7060   -0.1300 c3        1 MOL     -0.155827
     55 C18        -6.6480    1.5990   -1.0900 c         1 MOL      0.643587
     56 O9         -7.4410    1.8430   -2.0310 o         1 MOL     -0.550418
     57 H25        -3.9910    2.8280   -0.3930 hn        1 MOL      0.030211
     58 H26        -6.8570    3.4090    0.0500 h1        1 MOL      0.069122
     59 H27        -5.8130    2.3060    0.8550 h1        1 MOL      0.069122
     60 N6         -6.3660    0.3110   -0.8390 n         1 MOL     -0.398842
     61 C19        -7.0820   -0.7580   -1.5200 c3        1 MOL      0.025381
     62 C20        -7.2870   -2.0830   -0.7520 c         1 MOL      0.466327
     63 O10        -7.6110   -3.1410   -1.3000 o         1 MOL     -0.512930
     64 C21        -6.3160   -0.9860   -2.9110 c3        1 MOL     -0.233515
     65 C22        -4.7480   -1.0790   -2.7680 c         1 MOL      0.666913
     66 O11        -4.2790   -1.6650   -1.7590 o         1 MOL     -0.642194
     67 O12        -3.9990   -0.5890   -3.6720 o         1 MOL     -0.642194
     68 H28        -5.6830    0.1130   -0.1290 hn        1 MOL      0.111750
     69 H29        -8.1210   -0.4820   -1.7310 h1        1 MOL      0.102364
     70 H30        -6.4770   -0.0960   -3.5320 hc        1 MOL      0.075850
     71 H31        -6.7800   -1.8530   -3.3630 hc        1 MOL      0.075850
     72 N7         -7.0480   -2.0370    0.5760 n         1 MOL     -0.378505
     73 C23        -7.0180   -3.2750    1.4360 c3        1 MOL     -0.285460
     74 C24        -5.7380   -4.1090    1.3030 c         1 MOL      0.563178
     75 O13        -5.7600   -5.2510    1.7110 o         1 MOL     -0.562518
     76 H32        -6.6720   -1.2280    1.0540 hn        1 MOL      0.311032
     77 H33        -7.8660   -3.8740    1.1030 h1        1 MOL      0.147284
     78 H34        -7.1690   -2.8710    2.4300 h1        1 MOL      0.147284
     79 N8         -4.7640   -3.5770    0.5600 n         1 MOL     -0.177949
     80 C25        -3.4970   -4.3650    0.3630 c3        1 MOL     -0.246982
     81 C26        -2.1920   -3.4760    0.4320 c         1 MOL      0.594197
     82 O14        -2.2310   -2.3140    0.2220 o         1 MOL     -0.579596
     83 C27        -3.4100   -5.2060   -0.9210 c3        1 MOL      0.597075
     84 C28        -4.1370   -6.5190   -0.9210 c3        1 MOL     -0.358768
     85 O15        -3.7890   -4.5510   -2.0830 oh        1 MOL     -0.681195
     86 H35        -4.8300   -2.6750    0.1130 hn        1 MOL      0.188357
     87 H36        -3.4530   -5.0660    1.1980 h1        1 MOL      0.095035
     88 H37        -2.3760   -5.5110   -1.0740 h1        1 MOL     -0.031042
     89 H38        -4.2100   -3.7100   -1.8810 ho        1 MOL      0.408979
     90 H39        -5.1920   -6.3020   -0.7520 hc        1 MOL      0.078950
     91 H40        -3.9170   -7.1390   -1.7950 hc        1 MOL      0.078950
     92 H41        -3.7170   -7.0920   -0.0910 hc        1 MOL      0.078950
     93 N9         -1.0700   -4.1130    0.8090 n         1 MOL     -0.608371
     94 C29         0.1660   -3.4620    1.1810 c3        1 MOL      0.315074
     95 C30         1.2550   -3.9460    0.2060 c         1 MOL      0.361900
     96 O16         1.4110   -5.1610    0.0520 o         1 MOL     -0.544315
     97 C31         0.4520   -3.6010    2.6790 c3        1 MOL      0.036845
     98 C32        -0.2960   -2.4380    3.3730 c3        1 MOL      0.184303
     99 C33         1.9210   -3.7780    3.1130 c3        1 MOL     -0.474602
    100 C34        -0.0630   -2.2980    4.8890 c3        1 MOL     -0.348222
    101 H42        -1.1820   -5.0340    1.1890 hn        1 MOL      0.293361
    102 H43         0.0270   -2.4010    0.9430 h1        1 MOL      0.006614
    103 H44        -0.0930   -4.4780    3.0080 hc        1 MOL      0.020786
    104 H45        -1.3600   -2.6490    3.2350 hc        1 MOL     -0.001142
    105 H46        -0.1160   -1.4700    2.9140 hc        1 MOL     -0.001142
    106 H47         2.5060   -2.9800    2.6730 hc        1 MOL      0.119778
    107 H48         1.9510   -3.7520    4.1940 hc        1 MOL      0.119778
    108 H49         2.2370   -4.7880    2.8140 hc        1 MOL      0.119778
    109 H50         0.9490   -2.0160    5.1690 hc        1 MOL      0.073257
    110 H51        -0.7410   -1.5560    5.3030 hc        1 MOL      0.073257
    111 H52        -0.1010   -3.2130    5.4800 hc        1 MOL      0.073257
    112 N10         1.8950   -2.9960   -0.4580 n         1 MOL     -0.045651
    113 C35         3.0340   -3.2670   -1.3190 c3        1 MOL     -0.008686
    114 C36         4.3640   -3.1890   -0.5610 c         1 MOL      0.299435
    115 O17         4.3850   -2.7070    0.5540 o         1 MOL     -0.298373
    116 C37         3.0180   -2.2490   -2.4440 c3        1 MOL      0.275477
    117 C38         1.7050   -2.3410   -3.2760 c3        1 MOL     -0.418787
    118 O18         3.0130   -0.9460   -1.8630 oh        1 MOL     -0.604453
    119 H53         1.6800   -2.0210   -0.3360 hn        1 MOL     -0.003772
    120 H54         2.9680   -4.2140   -1.8500 h1        1 MOL      0.069894
    121 H55         3.9230   -2.4060   -3.0360 h1        1 MOL      0.010926
    122 H56         2.1130   -0.7630   -1.5980 ho        1 MOL      0.397835
    123 H57         1.5840   -3.3550   -3.6600 hc        1 MOL      0.116450
    124 H58         0.8300   -2.0640   -2.6930 hc        1 MOL      0.116450
    125 H59         1.7340   -1.6400   -4.1130 hc        1 MOL      0.116450
    126 N11         5.4560   -3.5490   -1.1920 n         1 MOL     -0.240773
    127 C39         6.8570   -3.4460   -0.7490 c3        1 MOL     -0.091158
    128 C40         7.2080   -2.0010   -0.2950 c         1 MOL      0.243368
    129 O19         7.9880   -1.8630    0.7160 o         1 MOL     -0.447779
    130 C41         7.7980   -3.8170   -1.9260 c3        1 MOL      0.504076
    131 C42         9.2290   -4.1350   -1.4100 c3        1 MOL     -0.427910
    132 O20         7.3100   -5.0340   -2.4560 oh        1 MOL     -0.613311
    133 H60         5.2900   -3.9300   -2.1130 hn        1 MOL      0.190267
    134 H61         7.0460   -4.1470    0.0600 h1        1 MOL      0.158267
    135 H62         7.7560   -3.0280   -2.6760 h1        1 MOL     -0.062425
    136 H63         7.4300   -5.0420   -3.4050 ho        1 MOL      0.386904
    137 H64         9.3060   -5.1050   -0.9270 hc        1 MOL      0.114448
    138 H65         9.8770   -4.1220   -2.2800 hc        1 MOL      0.114448
    139 H66         9.6490   -3.3460   -0.7820 hc        1 MOL      0.114448
    140 N12         6.5550   -0.9400   -0.8930 n         1 MOL     -0.306539
    141 C43         6.7530    0.5040   -0.5230 c3        1 MOL      0.022148
    142 C44         5.8570    0.8970    0.6740 c         1 MOL      0.380687
    143 O21         6.2780    1.6030    1.5510 o         1 MOL     -0.523422
    144 C45         6.6100    1.3480   -1.7570 c3        1 MOL     -0.182426
    145 C46         6.8910    2.7520   -1.3550 c3        1 MOL      0.146864
    146 C47         6.9020    3.7760   -2.5050 c3        1 MOL     -0.096924
    147 C48         7.6570    3.5390   -3.8380 c3        1 MOL     -0.034074
    148 N13         9.0830    3.8450   -3.7010 n4        1 MOL     -0.229967
    149 H67         5.9070   -1.1010   -1.6480 hn        1 MOL      0.250648
    150 H68         7.7380    0.6950   -0.1150 h1        1 MOL      0.104845
    151 H69         5.5570    1.2640   -2.0160 hc        1 MOL      0.058365
    152 H70         7.1690    0.9530   -2.6100 hc        1 MOL      0.058365
    153 H71         7.8180    2.9230   -0.8030 hc        1 MOL     -0.014669
    154 H72         6.0870    3.0700   -0.6940 hc        1 MOL     -0.014669
    155 H73         7.1840    4.7590   -2.1360 hc        1 MOL      0.054114
    156 H74         5.8470    3.9410   -2.7150 hc        1 MOL      0.054114
    157 H75         7.1520    4.2270   -4.5120 hx        1 MOL      0.094976
    158 H76         7.5090    2.5170   -4.1970 hx        1 MOL      0.094976
    159 H77         9.5290    3.8810   -4.6060 hn        1 MOL      0.262704
    160 H78         9.2560    4.6570   -3.1230 hn        1 MOL      0.262704
    161 H79         9.4580    3.0200   -3.2710 hn        1 MOL      0.262704
    162 N14         4.6870    0.3550    0.7340 n         1 MOL     -0.065247
    163 C49         3.7710    0.5010    1.9100 c3        1 MOL     -0.094801
    164 C50         4.3090   -0.1760    3.1630 c         1 MOL      0.410051
    165 O22         4.4170    0.3390    4.2970 o         1 MOL     -0.520842
    166 C51         2.3120    0.0750    1.4870 c3        1 MOL      0.397543
    167 C52         1.7070    1.0720    0.5900 c3        1 MOL     -0.034778
    168 C53         0.4850    0.5210   -0.1580 c         1 MOL      0.491365
    169 O23         0.4940   -0.5910   -0.7670 o         1 MOL     -0.599182
    170 O24        -0.5150    1.2700   -0.2580 o         1 MOL     -0.599182
    171 H80         4.3420   -0.1830   -0.0550 hn        1 MOL      0.109311
    172 H81         3.7200    1.5570    2.1560 h1        1 MOL      0.061093
    173 H82         1.6930   -0.1760    2.3490 hc        1 MOL     -0.096375
    174 H83         2.5110   -0.8550    0.9570 hc        1 MOL     -0.096375
    175 H84         2.5050    1.4660   -0.0320 hc        1 MOL     -0.020988
    176 H85         1.4610    1.8770    1.2890 hc        1 MOL     -0.020988
    177 N15         4.7630   -1.4730    3.0210 n         1 MOL     -0.058042
    178 C54         5.4630   -2.1920    4.1290 c3        1 MOL     -0.353207
    179 H86         5.6030   -1.5140    4.9710 h1        1 MOL      0.126549
    180 H87         4.8620   -3.0450    4.4460 h1        1 MOL      0.126549
    181 H88         6.4350   -2.5410    3.7800 h1        1 MOL      0.126549
    182 H89         4.5640   -2.0410    2.2100 hn        1 MOL      0.122837
    183 Ca1        -2.1470   -0.3240   -1.4790 Ca        1 MOL      1.772591
    184 O25        -1.9200   -2.5260   -3.0040 oh        1 MOL     -0.892578
    185 H90        -2.6950   -3.0780   -3.0470 ho        1 MOL      0.410811
    186 H91        -1.4090   -2.7790   -3.7740 ho        1 MOL      0.410811
    187 O26        -0.5480    0.2010   -3.5700 oh        1 MOL     -0.892578
    188 H92         0.1080   -0.0160   -4.2320 ho        1 MOL      0.410811
    189 H93        -0.9410    1.0150   -3.8820 ho        1 MOL      0.410811
@<TRIPOS>BOND
     1    1    2 1   
     2    1    4 1   
     3    1    5 1   
     4    1    6 1   
     5    2    3 2   
     6    2    7 1   
     7    7    8 1   
     8    7   15 1   
     9    8    9 1   
    10    8   11 1   
    11    8   16 1   
    12    9   10 2   
    13    9   19 1   
    14   11   12 1   
    15   11   17 1   
    16   11   18 1   
    17   12   13 1   
    18   12   14 1   
    19   19   20 1   
    20   19   28 1   
    21   20   21 1   
    22   20   23 1   
    23   20   29 1   
    24   21   22 2   
    25   21   41 1   
    26   23   24 1   
    27   23   30 1   
    28   23   31 1   
    29   24   25 1   
    30   24   32 1   
    31   24   33 1   
    32   25   26 1   
    33   25   34 1   
    34   25   35 1   
    35   26   27 1   
    36   26   36 1   
    37   26   37 1   
    38   27   38 1   
    39   27   39 1   
    40   27   40 1   
    41   41   42 1   
    42   41   49 1   
    43   42   43 1   
    44   42   45 1   
    45   42   50 1   
    46   43   44 2   
    47   43   53 1   
    48   45   46 1   
    49   45   51 1   
    50   45   52 1   
    51   46   47 1   
    52   46   48 1   
    53   53   54 1   
    54   53   57 1   
    55   54   55 1   
    56   54   58 1   
    57   54   59 1   
    58   55   56 2   
    59   55   60 1   
    60   60   61 1   
    61   60   68 1   
    62   61   62 1   
    63   61   64 1   
    64   61   69 1   
    65   62   63 2   
    66   62   72 1   
    67   64   65 1   
    68   64   70 1   
    69   64   71 1   
    70   65   66 1   
    71   65   67 1   
    72   72   73 1   
    73   72   76 1   
    74   73   74 1   
    75   73   77 1   
    76   73   78 1   
    77   74   75 2   
    78   74   79 1   
    79   79   80 1   
    80   79   86 1   
    81   80   81 1   
    82   80   83 1   
    83   80   87 1   
    84   81   82 2   
    85   81   93 1   
    86   83   84 1   
    87   83   85 1   
    88   83   88 1   
    89   84   90 1   
    90   84   91 1   
    91   84   92 1   
    92   85   89 1   
    93   93   94 1   
    94   93  101 1   
    95   94   95 1   
    96   94   97 1   
    97   94  102 1   
    98   95   96 2   
    99   95  112 1   
   100   97   98 1   
   101   97   99 1   
   102   97  103 1   
   103   98  100 1   
   104   98  104 1   
   105   98  105 1   
   106   99  106 1   
   107   99  107 1   
   108   99  108 1   
   109  100  109 1   
   110  100  110 1   
   111  100  111 1   
   112  112  113 1   
   113  112  119 1   
   114  113  114 1   
   115  113  116 1   
   116  113  120 1   
   117  114  115 2   
   118  114  126 1   
   119  116  117 1   
   120  116  118 1   
   121  116  121 1   
   122  117  123 1   
   123  117  124 1   
   124  117  125 1   
   125  118  122 1   
   126  126  127 1   
   127  126  133 1   
   128  127  128 1   
   129  127  130 1   
   130  127  134 1   
   131  128  129 2   
   132  128  140 1   
   133  130  131 1   
   134  130  132 1   
   135  130  135 1   
   136  131  137 1   
   137  131  138 1   
   138  131  139 1   
   139  132  136 1   
   140  140  141 1   
   141  140  149 1   
   142  141  142 1   
   143  141  144 1   
   144  141  150 1   
   145  142  143 2   
   146  142  162 1   
   147  144  145 1   
   148  144  151 1   
   149  144  152 1   
   150  145  146 1   
   151  145  153 1   
   152  145  154 1   
   153  146  147 1   
   154  146  155 1   
   155  146  156 1   
   156  147  148 1   
   157  147  157 1   
   158  147  158 1   
   159  148  159 1   
   160  148  160 1   
   161  148  161 1   
   162  162  163 1   
   163  162  171 1   
   164  163  164 1   
   165  163  166 1   
   166  163  172 1   
   167  164  165 2   
   168  164  177 1   
   169  166  167 1   
   170  166  173 1   
   171  166  174 1   
   172  167  168 1   
   173  167  175 1   
   174  167  176 1   
   175  168  169 1   
   176  168  170 1   
   177  177  178 1   
   178  177  182 1   
   179  178  179 1   
   180  178  180 1   
   181  178  181 1   
   182  184  185 1   
   183  184  186 1   
   184  187  188 1   
   185  187  189 1   
@<TRIPOS>SUBSTRUCTURE
     1 MOL         1 TEMP              0 ****  ****    0 ROOT
