@<TRIPOS>MOLECULE
MOL
  175   173     1     0     0
SMALL
resp


@<TRIPOS>ATOM
      1 C1          0.5310    4.1260    5.3320 c3        1 MOL     -0.331009
      2 C2          0.0160    3.9250    3.9360 c         1 MOL      0.786569
      3 O1          0.7700    3.7650    2.9590 o         1 MOL     -0.590592
      4 H1          0.4630    3.1880    5.8820 hc        1 MOL      0.078839
      5 H2          1.5710    4.4480    5.2920 hc        1 MOL      0.078839
      6 H3         -0.0660    4.8860    5.8350 hc        1 MOL      0.078839
      7 N1         -1.3230    3.8080    3.8050 n         1 MOL     -0.798206
      8 C3         -1.9860    3.6270    2.4960 c3        1 MOL      0.257997
      9 C4         -1.8700    4.8930    1.5430 c         1 MOL      0.508212
     10 O2         -1.9780    6.0700    1.9980 o         1 MOL     -0.579936
     11 C5         -3.5040    3.2120    2.6980 c3        1 MOL     -0.406638
     12 C6         -4.1270    2.5540    1.4620 c         1 MOL      0.826705
     13 O3         -5.2820    2.1380    1.5800 o         1 MOL     -0.698350
     14 O4         -3.3640    2.2760    0.5210 o         1 MOL     -0.698350
     15 H4         -1.8280    4.2060    4.5780 hn        1 MOL      0.361852
     16 H5         -1.4140    2.8450    1.9900 h1        1 MOL      0.170170
     17 H6         -4.1050    4.0990    2.9240 hc        1 MOL      0.088656
     18 H7         -3.6970    2.5370    3.5340 hc        1 MOL      0.088656
     19 N2         -1.6350    4.6180    0.2600 n         1 MOL     -0.468508
     20 C7         -1.9050    5.5730   -0.8120 c3        1 MOL      0.303301
     21 C8         -2.7690    4.9870   -1.9540 c         1 MOL      0.448102
     22 O5         -3.2260    5.8110   -2.7600 o         1 MOL     -0.582842
     23 C9         -0.5330    6.1210   -1.3000 c3        1 MOL     -0.371443
     24 H8         -1.2340    3.7300   -0.0110 hn        1 MOL      0.278795
     25 H9         -2.5690    6.3450   -0.4270 h1        1 MOL      0.025419
     26 H10        -0.7470    6.9500   -1.9640 hc        1 MOL      0.091657
     27 H11        -0.0300    6.5670   -0.4510 hc        1 MOL      0.091657
     28 H12         0.0890    5.3230   -1.7150 hc        1 MOL      0.091657
     29 N3         -3.1380    3.6730   -1.9920 n         1 MOL     -0.253016
     30 C10        -3.9110    3.2350   -3.2060 c3        1 MOL     -0.017754
     31 C11        -5.2740    2.5550   -2.9340 c         1 MOL      0.431720
     32 O6         -6.0360    2.2640   -3.7870 o         1 MOL     -0.548991
     33 C12        -3.0520    2.2220   -4.0400 c3        1 MOL      0.110381
     34 C13        -2.4560    1.1160   -3.2420 c         1 MOL      0.541496
     35 O7         -3.0800    0.7030   -2.2430 o         1 MOL     -0.651581
     36 O8         -1.4060    0.6110   -3.7170 o         1 MOL     -0.651581
     37 H13        -3.0030    3.0440   -1.2150 hn        1 MOL      0.096933
     38 H14        -4.1250    4.0720   -3.8660 h1        1 MOL      0.082916
     39 H15        -2.1950    2.7630   -4.4600 hc        1 MOL     -0.029581
     40 H16        -3.6500    1.9900   -4.9160 hc        1 MOL     -0.029581
     41 N4         -5.5920    2.3540   -1.6860 n         1 MOL     -0.118172
     42 C14        -6.9170    1.9510   -1.2330 c3        1 MOL     -0.308573
     43 C15        -7.1820    0.4700   -1.3660 c         1 MOL      0.624624
     44 O9         -8.3170    0.0090   -1.3220 o         1 MOL     -0.634541
     45 H17        -4.8750    2.5730   -1.0190 hn        1 MOL      0.128737
     46 H18        -7.7410    2.4080   -1.7690 h1        1 MOL      0.128515
     47 H19        -7.0450    2.0210   -0.1500 h1        1 MOL      0.128515
     48 N5         -6.1360   -0.3800   -1.6130 n         1 MOL     -0.256091
     49 C16        -6.2510   -1.6960   -2.2130 c3        1 MOL      0.081007
     50 C17        -6.4040   -2.8190   -1.1560 c         1 MOL      0.290725
     51 O10        -6.3780   -3.9740   -1.5680 o         1 MOL     -0.477227
     52 C18        -5.0580   -1.9660   -3.0690 c3        1 MOL     -0.325918
     53 C19        -3.7340   -2.1690   -2.3200 c         1 MOL      0.653250
     54 N6         -2.7340   -2.4070   -3.1260 n         1 MOL     -0.667547
     55 O11        -3.6410   -2.1610   -1.0960 o         1 MOL     -0.397571
     56 H20        -5.2590    0.1000   -1.5900 hn        1 MOL      0.149622
     57 H21        -7.0990   -1.7900   -2.8990 h1        1 MOL      0.098189
     58 H22        -4.9550   -1.1570   -3.7900 hc        1 MOL      0.091285
     59 H23        -5.2660   -2.9470   -3.5060 hc        1 MOL      0.091285
     60 H24        -2.8520   -2.4360   -4.1190 hn        1 MOL      0.343484
     61 H25        -1.7790   -2.3480   -2.7840 hn        1 MOL      0.343484
     62 N7         -6.5020   -2.5020    0.1480 n         1 MOL     -0.151610
     63 C20        -6.8230   -3.4760    1.1910 c3        1 MOL     -0.116121
     64 C21        -5.5120   -4.1700    1.6640 c         1 MOL      0.529316
     65 O12        -5.6580   -5.1440    2.3450 o         1 MOL     -0.573278
     66 H26        -6.6030   -1.5270    0.3970 hn        1 MOL      0.205300
     67 H27        -7.5730   -4.1840    0.8260 h1        1 MOL      0.078967
     68 H28        -7.2940   -2.8700    1.9660 h1        1 MOL      0.078967
     69 N8         -4.2520   -3.7460    1.2990 n         1 MOL     -0.042326
     70 C22        -2.9630   -4.4440    1.5540 c3        1 MOL     -0.296998
     71 C23        -1.8090   -3.4260    1.8300 c         1 MOL      0.623587
     72 O13        -1.9570   -2.2600    1.4680 o         1 MOL     -0.470954
     73 C24        -2.5280   -5.3110    0.3840 c3        1 MOL      0.482316
     74 C25        -3.2470   -6.6810    0.4060 c3        1 MOL     -0.442359
     75 O14        -2.9090   -4.8440   -0.8780 oh        1 MOL     -0.581215
     76 H29        -4.0810   -2.8870    0.8020 hn        1 MOL     -0.120427
     77 H30        -3.0790   -5.1450    2.3790 h1        1 MOL      0.111577
     78 H31        -1.4400   -5.4140    0.3140 h1        1 MOL     -0.008787
     79 H32        -2.7010   -3.9090   -0.9650 ho        1 MOL      0.325206
     80 H33        -2.9700   -7.2450    1.2930 hc        1 MOL      0.106688
     81 H34        -4.3330   -6.5930    0.4360 hc        1 MOL      0.106688
     82 H35        -2.9530   -7.3860   -0.3770 hc        1 MOL      0.106688
     83 N9         -0.6790   -3.7490    2.4790 n         1 MOL     -0.576957
     84 C26         0.5570   -2.9610    2.3370 c3        1 MOL      0.124850
     85 C27         1.3720   -3.2120    0.9810 c         1 MOL      0.623889
     86 O15         1.5240   -4.3560    0.5390 o         1 MOL     -0.574562
     87 C28         1.3430   -2.9500    3.6660 c3        1 MOL      0.016269
     88 C29         0.7430   -1.9090    4.6110 c3        1 MOL      0.015138
     89 C30         2.8730   -2.8350    3.4810 c3        1 MOL     -0.131726
     90 C31         1.3470   -1.8720    5.9780 c3        1 MOL     -0.058009
     91 H36        -0.5250   -4.7180    2.6650 hn        1 MOL      0.276286
     92 H37         0.1970   -1.9440    2.2610 h1        1 MOL     -0.026328
     93 H38         1.2270   -3.9360    4.1120 hc        1 MOL      0.021622
     94 H39        -0.3300   -2.1310    4.6100 hc        1 MOL      0.004092
     95 H40         0.6650   -0.9000    4.2100 hc        1 MOL      0.004092
     96 H41         3.1810   -3.6350    2.8230 hc        1 MOL      0.016636
     97 H42         3.2690   -1.8740    3.1580 hc        1 MOL      0.016636
     98 H43         3.3270   -3.0690    4.4510 hc        1 MOL      0.016636
     99 H44         2.2750   -1.3010    5.9400 hc        1 MOL      0.010930
    100 H45         0.6960   -1.3920    6.7090 hc        1 MOL      0.010930
    101 H46         1.5590   -2.8570    6.3900 hc        1 MOL      0.010930
    102 N10         1.7470   -2.0510    0.4580 n         1 MOL     -0.458495
    103 C32         2.4440   -2.0190   -0.7840 c3        1 MOL      0.204419
    104 C33         3.9200   -1.5490   -0.7680 c         1 MOL      0.338921
    105 O16         4.2870   -0.8180    0.1700 o         1 MOL     -0.351206
    106 C34         1.6700   -1.2780   -1.8270 c3        1 MOL     -0.256485
    107 C35         0.2340   -1.8650   -2.0480 c         1 MOL      0.699141
    108 O17        -0.6780   -1.6230   -1.2040 o         1 MOL     -0.663860
    109 O18        -0.0670   -2.5990   -3.0430 o         1 MOL     -0.663860
    110 H47         1.5590   -1.1730    0.9270 hn        1 MOL      0.271213
    111 H48         2.3960   -3.0400   -1.1570 h1        1 MOL      0.038440
    112 H49         2.2700   -1.2170   -2.7370 hc        1 MOL      0.068516
    113 H50         1.5370   -0.2820   -1.4060 hc        1 MOL      0.068516
    114 N11         4.8430   -1.8400   -1.7000 n         1 MOL     -0.601310
    115 C36         6.3050   -1.5500   -1.4010 c3        1 MOL      0.461969
    116 C37         6.6820   -0.0620   -1.0340 c         1 MOL      0.285742
    117 O19         7.4750    0.0260   -0.0920 o         1 MOL     -0.487820
    118 C38         7.1410   -2.0790   -2.5820 c3        1 MOL     -0.208157
    119 C39         8.6710   -2.0700   -2.5040 ca        1 MOL      0.125946
    120 C40         9.3590   -2.0620   -1.3260 ca        1 MOL     -0.175590
    121 C41         9.4480   -1.9990   -3.6600 ca        1 MOL     -0.175590
    122 C42        10.7390   -2.0330   -1.2530 ca        1 MOL     -0.053369
    123 C43        10.8520   -1.9260   -3.6610 ca        1 MOL     -0.053369
    124 C44        11.5050   -2.0430   -2.4260 ca        1 MOL     -0.203208
    125 H51         4.6210   -2.4560   -2.4710 hn        1 MOL      0.324453
    126 H52         6.5110   -2.1930   -0.5410 h1        1 MOL      0.035524
    127 H53         6.9230   -1.4600   -3.4560 hc        1 MOL      0.055032
    128 H54         6.8170   -3.0940   -2.8080 hc        1 MOL      0.055032
    129 H55         8.7190   -2.0670   -0.4520 ha        1 MOL      0.091256
    130 H56         8.8660   -1.9580   -4.5730 ha        1 MOL      0.091256
    131 H57        11.2570   -2.0740   -0.3040 ha        1 MOL      0.098115
    132 H58        11.3740   -1.7990   -4.5980 ha        1 MOL      0.098115
    133 H59        12.5850   -2.0160   -2.3010 ha        1 MOL      0.120736
    134 N12         6.1890    1.0390   -1.6170 n         1 MOL     -0.036309
    135 C45         6.3660    2.3610   -1.1370 c3        1 MOL      0.122365
    136 C46         5.7050    2.6650    0.1900 c         1 MOL      0.264876
    137 O20         6.1890    3.5460    0.8830 o         1 MOL     -0.498485
    138 C47         5.8210    3.3340   -2.1570 c3        1 MOL     -0.376248
    139 C48         4.8590    2.4640   -2.9450 c3        1 MOL      0.046125
    140 C49         5.5820    1.1390   -2.9430 c3        1 MOL     -0.069194
    141 H60         7.4440    2.5510   -1.1390 h1        1 MOL      0.065042
    142 H61         5.2630    4.1310   -1.6640 hc        1 MOL      0.134196
    143 H62         6.7030    3.6390   -2.7170 hc        1 MOL      0.134196
    144 H63         3.9150    2.3230   -2.4300 hc        1 MOL      0.041302
    145 H64         4.5310    2.7820   -3.9330 hc        1 MOL      0.041302
    146 H65         5.0140    0.2620   -3.2570 h1        1 MOL      0.032842
    147 H66         6.3970    1.1760   -3.6730 h1        1 MOL      0.032842
    148 N13         4.7000    1.8530    0.6490 n         1 MOL     -0.108557
    149 C50         4.0260    2.0130    1.9740 c3        1 MOL     -0.121529
    150 C51         4.8710    1.3560    3.0570 c         1 MOL      0.440925
    151 O21         4.8620    1.8140    4.1850 o         1 MOL     -0.541985
    152 C52         2.6560    1.4070    1.8900 c3        1 MOL      0.038381
    153 C53         1.8640    1.9910    0.6700 c3        1 MOL     -0.175799
    154 C54         0.3990    1.4590    0.5260 c         1 MOL      0.443677
    155 O22         0.1200    0.4060    1.1930 o         1 MOL     -0.605673
    156 O23        -0.4520    1.9080   -0.2870 o         1 MOL     -0.605673
    157 H67         4.5290    1.0000    0.1440 hn        1 MOL      0.163400
    158 H68         3.8390    3.0690    2.1920 h1        1 MOL      0.130798
    159 H69         2.0490    1.6060    2.7750 hc        1 MOL      0.035265
    160 H70         2.7650    0.3240    1.8140 hc        1 MOL      0.035265
    161 H71         2.3180    1.6850   -0.2800 hc        1 MOL      0.085990
    162 H72         1.9770    3.0750    0.7600 hc        1 MOL      0.085990
    163 N14         5.6370    0.2630    2.6610 n         1 MOL      0.068472
    164 C55         6.6130   -0.4230    3.4730 c3        1 MOL     -0.316104
    165 H73         6.1050   -1.1140    4.1450 h1        1 MOL      0.100949
    166 H74         7.2960   -0.9790    2.8290 h1        1 MOL      0.100949
    167 H75         7.1760    0.3040    4.0570 h1        1 MOL      0.100949
    168 H76         5.5560    0.0830    1.6710 hn        1 MOL     -0.030071
    169 Ca1        -2.2030   -0.0630    0.0880 Ca        1 MOL      1.644590
    170 O24        -2.1310    0.5250    2.9080 oh        1 MOL     -0.742865
    171 H77        -1.1810    0.6170    2.9070 ho        1 MOL      0.367394
    172 H78        -2.3840    0.6080    3.8320 ho        1 MOL      0.367394
    173 O25        -4.6510   -0.4660    1.7060 oh        1 MOL     -0.742865
    174 H79        -5.1210    0.3660    1.7380 ho        1 MOL      0.367394
    175 H80        -4.8650   -0.8980    2.5290 ho        1 MOL      0.367394
@<TRIPOS>BOND
     1    1    2 1   
     2    1    4 1   
     3    1    5 1   
     4    1    6 1   
     5    2    3 2   
     6    2    7 1   
     7    7    8 1   
     8    7   15 1   
     9    8    9 1   
    10    8   11 1   
    11    8   16 1   
    12    9   10 2   
    13    9   19 1   
    14   11   12 1   
    15   11   17 1   
    16   11   18 1   
    17   12   13 1   
    18   12   14 1   
    19   19   20 1   
    20   19   24 1   
    21   20   21 1   
    22   20   23 1   
    23   20   25 1   
    24   21   22 2   
    25   21   29 1   
    26   23   26 1   
    27   23   27 1   
    28   23   28 1   
    29   29   30 1   
    30   29   37 1   
    31   30   31 1   
    32   30   33 1   
    33   30   38 1   
    34   31   32 2   
    35   31   41 1   
    36   33   34 1   
    37   33   39 1   
    38   33   40 1   
    39   34   35 1   
    40   34   36 1   
    41   41   42 1   
    42   41   45 1   
    43   42   43 1   
    44   42   46 1   
    45   42   47 1   
    46   43   44 2   
    47   43   48 1   
    48   48   49 1   
    49   48   56 1   
    50   49   50 1   
    51   49   52 1   
    52   49   57 1   
    53   50   51 2   
    54   50   62 1   
    55   52   53 1   
    56   52   58 1   
    57   52   59 1   
    58   53   54 1   
    59   53   55 2   
    60   54   60 1   
    61   54   61 1   
    62   62   63 1   
    63   62   66 1   
    64   63   64 1   
    65   63   67 1   
    66   63   68 1   
    67   64   65 2   
    68   64   69 1   
    69   69   70 1   
    70   69   76 1   
    71   70   71 1   
    72   70   73 1   
    73   70   77 1   
    74   71   72 2   
    75   71   83 1   
    76   73   74 1   
    77   73   75 1   
    78   73   78 1   
    79   74   80 1   
    80   74   81 1   
    81   74   82 1   
    82   75   79 1   
    83   83   84 1   
    84   83   91 1   
    85   84   85 1   
    86   84   87 1   
    87   84   92 1   
    88   85   86 2   
    89   85  102 1   
    90   87   88 1   
    91   87   89 1   
    92   87   93 1   
    93   88   90 1   
    94   88   94 1   
    95   88   95 1   
    96   89   96 1   
    97   89   97 1   
    98   89   98 1   
    99   90   99 1   
   100   90  100 1   
   101   90  101 1   
   102  102  103 1   
   103  102  110 1   
   104  103  104 1   
   105  103  106 1   
   106  103  111 1   
   107  104  105 2   
   108  104  114 1   
   109  106  107 1   
   110  106  112 1   
   111  106  113 1   
   112  107  108 1   
   113  107  109 1   
   114  114  115 1   
   115  114  125 1   
   116  115  116 1   
   117  115  118 1   
   118  115  126 1   
   119  116  117 2   
   120  116  134 1   
   121  118  119 1   
   122  118  127 1   
   123  118  128 1   
   124  119  120 ar  
   125  119  121 ar  
   126  120  122 ar  
   127  120  129 1   
   128  121  123 ar  
   129  121  130 1   
   130  122  124 ar  
   131  122  131 1   
   132  123  124 ar  
   133  123  132 1   
   134  124  133 1   
   135  134  135 1   
   136  134  140 1   
   137  135  136 1   
   138  135  138 1   
   139  135  141 1   
   140  136  137 2   
   141  136  148 1   
   142  138  139 1   
   143  138  142 1   
   144  138  143 1   
   145  139  140 1   
   146  139  144 1   
   147  139  145 1   
   148  140  146 1   
   149  140  147 1   
   150  148  149 1   
   151  148  157 1   
   152  149  150 1   
   153  149  152 1   
   154  149  158 1   
   155  150  151 2   
   156  150  163 1   
   157  152  153 1   
   158  152  159 1   
   159  152  160 1   
   160  153  154 1   
   161  153  161 1   
   162  153  162 1   
   163  154  155 1   
   164  154  156 1   
   165  163  164 1   
   166  163  168 1   
   167  164  165 1   
   168  164  166 1   
   169  164  167 1   
   170  170  171 1   
   171  170  172 1   
   172  173  174 1   
   173  173  175 1   
@<TRIPOS>SUBSTRUCTURE
     1 MOL         1 TEMP              0 ****  ****    0 ROOT
