@<TRIPOS>MOLECULE
MOL
  186   183     1     0     0
SMALL
resp


@<TRIPOS>ATOM
      1 C1          0.8990   -1.9030    6.3410 c3        1 MOL     -0.502060
      2 C2          1.2480   -1.7450    4.9020 c         1 MOL      0.786390
      3 O1          0.3820   -2.1400    4.1180 o         1 MOL     -0.611566
      4 H1          0.2090   -1.1120    6.6360 hc        1 MOL      0.120595
      5 H2          0.4270   -2.8730    6.4970 hc        1 MOL      0.120595
      6 H3          1.8040   -1.8370    6.9450 hc        1 MOL      0.120595
      7 N1          2.4420   -1.3790    4.4840 n         1 MOL     -0.564736
      8 C3          2.8440   -1.3550    3.0990 c3        1 MOL      0.203864
      9 C4          3.1160   -2.7560    2.5920 c         1 MOL      0.446207
     10 O2          4.1120   -3.3880    3.0180 o         1 MOL     -0.562656
     11 C5          4.0770   -0.4320    2.9760 c3        1 MOL     -0.353326
     12 C6          4.8050   -0.4280    1.6210 c         1 MOL      0.755933
     13 O3          4.1650   -0.6560    0.5620 o         1 MOL     -0.650725
     14 O4          6.0290   -0.0600    1.6820 o         1 MOL     -0.650725
     15 H4          3.1380   -1.2460    5.2050 hn        1 MOL      0.302092
     16 H5          2.0050   -0.8920    2.5890 h1        1 MOL      0.027593
     17 H6          4.8050   -0.7430    3.7250 hc        1 MOL      0.077156
     18 H7          3.7290    0.5710    3.2380 hc        1 MOL      0.077156
     19 N2          2.4650   -3.3350    1.6250 n         1 MOL     -0.241945
     20 C7          2.6890   -4.6880    1.1340 c3        1 MOL     -0.020435
     21 C8          3.8160   -4.7880    0.1410 c         1 MOL      0.479360
     22 O5          4.7750   -5.5980    0.2890 o         1 MOL     -0.593652
     23 C9          1.3280   -5.3650    0.6220 c3        1 MOL      0.353545
     24 C10         0.2430   -5.2400    1.7650 c3        1 MOL      0.223325
     25 C11         1.6530   -6.8520    0.2980 c3        1 MOL     -0.443549
     26 C12        -1.0960   -5.9230    1.4630 c3        1 MOL     -0.205597
     27 H8          1.6460   -2.8240    1.3310 hn        1 MOL      0.086958
     28 H9          2.9590   -5.2820    2.0080 h1        1 MOL      0.063811
     29 H10         0.9230   -4.8850   -0.2600 hc        1 MOL     -0.051382
     30 H11         0.0870   -4.1700    1.8870 hc        1 MOL     -0.059817
     31 H12         0.7530   -5.5940    2.6670 hc        1 MOL     -0.059817
     32 H13         0.8070   -7.4830    0.0340 hc        1 MOL      0.086343
     33 H14         2.2340   -6.8320   -0.6270 hc        1 MOL      0.086343
     34 H15         2.2130   -7.2870    1.1260 hc        1 MOL      0.086343
     35 H16        -0.9250   -6.9060    1.0080 hc        1 MOL      0.032150
     36 H17        -1.7100   -6.0990    2.3450 hc        1 MOL      0.032150
     37 H18        -1.6040   -5.2800    0.7490 hc        1 MOL      0.032150
     38 N3          3.8380   -3.8990   -0.8830 n         1 MOL     -0.356990
     39 C13         4.7050   -4.0910   -2.0670 c3        1 MOL     -0.065735
     40 C14         6.0350   -3.3250   -2.0720 c         1 MOL      0.408024
     41 O6          6.7360   -3.3520   -3.0500 o         1 MOL     -0.490074
     42 C15         3.9450   -3.7830   -3.4080 c3        1 MOL     -0.090824
     43 C16         3.3630   -2.4200   -3.4660 c         1 MOL      0.756748
     44 O7          2.4120   -2.2520   -4.2900 o         1 MOL     -0.717397
     45 O8          3.4870   -1.6070   -2.5210 o         1 MOL     -0.717397
     46 H19         3.2050   -3.1150   -0.8460 hn        1 MOL      0.289174
     47 H20         4.9220   -5.1620   -2.0930 h1        1 MOL      0.106238
     48 H21         3.2120   -4.5780   -3.5700 hc        1 MOL      0.020614
     49 H22         4.6340   -3.9090   -4.2450 hc        1 MOL      0.020614
     50 N4          6.3810   -2.7850   -0.9100 n         1 MOL     -0.188600
     51 C17         7.5970   -2.0380   -0.5170 c3        1 MOL     -0.276401
     52 C18         7.8180   -0.8080   -1.4080 c         1 MOL      0.552155
     53 O9          8.8170   -0.6960   -2.1510 o         1 MOL     -0.593969
     54 H23         5.7860   -2.9690   -0.1160 hn        1 MOL      0.293979
     55 H24         8.4420   -2.7090   -0.6640 h1        1 MOL      0.107293
     56 H25         7.5000   -1.6690    0.5050 h1        1 MOL      0.107293
     57 N5          6.9450    0.2140   -1.3220 n         1 MOL     -0.120320
     58 C19         7.1660    1.5480   -1.8940 c3        1 MOL     -0.128867
     59 C20         7.0150    2.6740   -0.7710 c         1 MOL      0.484011
     60 O10         6.9750    3.8470   -1.0140 o         1 MOL     -0.527408
     61 C21         6.2750    1.8560   -3.0580 c3        1 MOL     -0.010013
     62 C22         4.7970    1.7280   -2.7240 c         1 MOL      0.637086
     63 O11         3.9940    1.7090   -3.6520 o         1 MOL     -0.698952
     64 O12         4.3760    1.6410   -1.5110 o         1 MOL     -0.698952
     65 H26         6.0780    0.0560   -0.8340 hn        1 MOL      0.037557
     66 H27         8.1680    1.7760   -2.2570 h1        1 MOL      0.097414
     67 H28         6.5770    1.1750   -3.8530 hc        1 MOL      0.025542
     68 H29         6.5050    2.8150   -3.5310 hc        1 MOL      0.025542
     69 N6          7.1100    2.2670    0.5000 n         1 MOL     -0.391723
     70 C23         6.9140    3.1310    1.6180 c3        1 MOL      0.017588
     71 C24         5.5730    3.9310    1.5860 c         1 MOL      0.458241
     72 O13         5.4570    4.9470    2.2140 o         1 MOL     -0.587530
     73 H30         6.9990    1.2890    0.7130 hn        1 MOL      0.252156
     74 H31         7.6190    3.9640    1.5760 h1        1 MOL      0.053348
     75 H32         7.0730    2.6260    2.5730 h1        1 MOL      0.053348
     76 N7          4.5040    3.4130    1.0170 n         1 MOL     -0.148800
     77 C25         3.1440    3.9340    1.1300 c3        1 MOL     -0.048206
     78 C26         2.0060    2.9310    1.4350 c         1 MOL      0.539977
     79 O14         2.0100    1.8230    0.9870 o         1 MOL     -0.578093
     80 C27         2.8310    4.8300   -0.0380 c3        1 MOL      0.052498
     81 C28         3.4250    6.2210   -0.1470 c3        1 MOL     -0.340513
     82 C29         2.7340    6.9980   -1.2610 c         1 MOL      0.651494
     83 N8          3.0690    6.7380   -2.5410 n         1 MOL     -0.826364
     84 O15         1.8610    7.8480   -1.0350 o         1 MOL     -0.566101
     85 H33         4.6060    2.5030    0.5810 hn        1 MOL      0.112842
     86 H34         3.1260    4.5070    2.0570 h1        1 MOL      0.062994
     87 H35         1.7710    5.0900   -0.0010 hc        1 MOL      0.029845
     88 H36         2.9970    4.3060   -0.9800 hc        1 MOL      0.029845
     89 H37         4.5090    6.1700   -0.3010 hc        1 MOL      0.112123
     90 H38         3.2030    6.7210    0.7950 hc        1 MOL      0.112123
     91 H39         3.7530    6.0090   -2.6960 hn        1 MOL      0.378459
     92 H40         2.7120    7.3070   -3.2870 hn        1 MOL      0.378459
     93 N9          0.9720    3.3940    2.1460 n         1 MOL     -0.386915
     94 C30        -0.2520    2.4760    2.3940 c3        1 MOL      0.012721
     95 C31        -1.3860    2.8650    1.3970 c         1 MOL      0.200951
     96 O16        -2.0600    3.9170    1.5440 o         1 MOL     -0.527331
     97 C32        -0.8150    2.5300    3.8610 c3        1 MOL      0.448034
     98 C33        -1.8550    1.4260    3.9910 c3        1 MOL     -0.269168
     99 C34         0.2920    2.3800    4.9010 c3        1 MOL     -0.269168
    100 H41         1.0760    4.2620    2.6610 hn        1 MOL      0.263684
    101 H42        -0.0690    1.4670    2.0060 h1        1 MOL      0.123108
    102 H43        -1.3900    3.4310    4.0940 hc        1 MOL     -0.080812
    103 H44        -1.3300    0.4710    3.9370 hc        1 MOL      0.040498
    104 H45        -2.2790    1.5950    4.9830 hc        1 MOL      0.040498
    105 H46        -2.6080    1.4650    3.2010 hc        1 MOL      0.040498
    106 H47         0.8220    1.4730    4.6180 hc        1 MOL      0.040498
    107 H48         0.9650    3.2240    4.7490 hc        1 MOL      0.040498
    108 H49        -0.0960    2.2930    5.9160 hc        1 MOL      0.040498
    109 N10        -1.5630    2.0940    0.3240 n         1 MOL     -0.003967
    110 C35        -2.6660    2.2970   -0.6180 c3        1 MOL     -0.011874
    111 C36        -4.0150    1.8330   -0.0700 c         1 MOL      0.336874
    112 O17        -4.0350    1.1640    0.9440 o         1 MOL     -0.309579
    113 C37        -2.2890    1.4760   -1.8050 c3        1 MOL     -0.186111
    114 C38        -3.2940    1.5260   -2.9060 c         1 MOL      0.639051
    115 N11        -3.5630    2.6840   -3.5360 n         1 MOL     -0.757436
    116 O18        -3.9790    0.5360   -3.2150 o         1 MOL     -0.489370
    117 H50        -0.9090    1.3590    0.0920 hn        1 MOL      0.166559
    118 H51        -2.7610    3.3710   -0.7920 h1        1 MOL      0.060666
    119 H52        -2.1540    0.4500   -1.4630 hc        1 MOL      0.073824
    120 H53        -1.4140    1.8890   -2.3050 hc        1 MOL      0.073824
    121 H54        -3.1720    3.5820   -3.2810 hn        1 MOL      0.348880
    122 H55        -4.2470    2.6820   -4.2870 hn        1 MOL      0.348880
    123 N12        -5.0970    2.1380   -0.7510 n         1 MOL     -0.359300
    124 C39        -6.3390    1.9080   -0.0890 c3        1 MOL      0.155193
    125 C40        -6.7110    0.4140   -0.0260 c         1 MOL      0.765474
    126 O19        -7.2810   -0.0420    0.9630 o         1 MOL     -0.548370
    127 C41        -7.3290    2.7220   -0.8500 c3        1 MOL      0.022641
    128 C42        -8.7490    2.5720   -0.4700 ca        1 MOL     -0.086197
    129 C43        -9.0120    2.4870    0.9190 ca        1 MOL     -0.125880
    130 C44        -9.7250    2.2790   -1.4100 ca        1 MOL     -0.125880
    131 C45       -10.2870    2.0320    1.4000 ca        1 MOL     -0.300202
    132 C46       -11.0130    1.9120   -0.9610 ca        1 MOL     -0.300202
    133 C47       -11.2740    1.7420    0.3860 ca        1 MOL      0.389432
    134 O20       -12.5060    1.3590    0.7450 oh        1 MOL     -0.496418
    135 H56        -5.0130    2.7170   -1.5680 hn        1 MOL      0.202709
    136 H57        -6.3460    2.3320    0.9060 h1        1 MOL      0.040646
    137 H58        -7.1950    2.6570   -1.9240 hc        1 MOL      0.016943
    138 H59        -7.0960    3.7790   -0.6850 hc        1 MOL      0.016943
    139 H60        -8.1850    2.6150    1.6070 ha        1 MOL      0.123702
    140 H61        -9.5620    2.2930   -2.4750 ha        1 MOL      0.123702
    141 H62       -10.5370    1.8300    2.4340 ha        1 MOL      0.159122
    142 H63       -11.7860    1.6790   -1.6790 ha        1 MOL      0.159122
    143 H64       -13.1230    1.2780    0.0060 ho        1 MOL      0.342229
    144 N13        -6.2300   -0.4590   -0.9600 n         1 MOL     -0.632023
    145 C48        -6.4800   -1.9020   -1.0300 c3        1 MOL      0.028885
    146 C49        -5.6850   -2.6070    0.0580 c         1 MOL      0.271613
    147 O21        -6.0640   -3.6280    0.6600 o         1 MOL     -0.501522
    148 C50        -6.1420   -2.5210   -2.4090 c3        1 MOL     -0.185492
    149 C51        -7.0700   -2.0390   -3.5560 c3        1 MOL     -0.117491
    150 C52        -6.9670   -2.9360   -4.7630 c         1 MOL      0.698466
    151 O22        -6.0070   -2.7720   -5.4880 o         1 MOL     -0.746912
    152 O23        -8.0100   -3.6430   -5.1020 o         1 MOL     -0.746912
    153 H65        -5.6220   -0.0890   -1.6770 hn        1 MOL      0.212918
    154 H66        -7.5420   -2.0340   -0.8430 h1        1 MOL      0.122531
    155 H67        -6.2470   -3.5930   -2.2370 hc        1 MOL      0.095934
    156 H68        -5.1010   -2.3060   -2.6290 hc        1 MOL      0.095934
    157 H69        -6.8540   -1.0280   -3.8930 hc        1 MOL      0.019744
    158 H70        -8.1040   -1.9980   -3.2150 hc        1 MOL      0.019744
    159 N14        -4.5200   -2.0540    0.3560 n         1 MOL     -0.090930
    160 C53        -3.5500   -2.4920    1.4050 c3        1 MOL     -0.163608
    161 C54        -4.1710   -2.1050    2.7760 c         1 MOL      0.474690
    162 O24        -4.1380   -2.9100    3.7120 o         1 MOL     -0.558749
    163 C55        -2.1860   -1.8490    1.1410 c3        1 MOL      0.019466
    164 C56        -1.5200   -2.1320   -0.1890 c3        1 MOL     -0.029726
    165 C57        -0.1530   -1.4730   -0.3200 c         1 MOL      0.822537
    166 O25         0.8880   -2.1060   -0.5420 o         1 MOL     -0.764061
    167 O26        -0.0280   -0.2450   -0.1740 o         1 MOL     -0.764061
    168 H71        -4.3390   -1.1660   -0.0900 hn        1 MOL      0.238012
    169 H72        -3.4280   -3.5720    1.3080 h1        1 MOL      0.128831
    170 H73        -1.4820   -2.1650    1.9170 hc        1 MOL      0.027903
    171 H74        -2.2960   -0.7670    1.1590 hc        1 MOL      0.027903
    172 H75        -2.1890   -1.8520   -1.0050 hc        1 MOL     -0.001297
    173 H76        -1.3840   -3.1880   -0.4300 hc        1 MOL     -0.001297
    174 N15        -4.8210   -0.9410    2.9380 n         1 MOL     -0.005865
    175 C58        -5.5530   -0.5350    4.1910 c3        1 MOL     -0.208738
    176 H77        -4.8600   -0.5360    5.0330 h1        1 MOL      0.083604
    177 H78        -5.9680    0.4640    4.0640 h1        1 MOL      0.083604
    178 H79        -6.3600   -1.2410    4.3870 h1        1 MOL      0.083604
    179 H80        -4.6760   -0.2560    2.1950 hn        1 MOL     -0.027643
    180 Ca1         2.3300    0.1200   -1.0190 Ca        1 MOL      1.732827
    181 O27         0.7340   -0.2840   -3.2600 oh        1 MOL     -0.862552
    182 H81         1.3300   -0.5760   -3.9480 ho        1 MOL      0.408725
    183 H82        -0.1450   -0.4170   -3.6200 ho        1 MOL      0.408725
    184 O28         1.2760    2.6940   -1.8980 oh        1 MOL     -0.862552
    185 H83         1.0620    2.7270   -2.8300 ho        1 MOL      0.408725
    186 H84         1.9540    3.3580   -1.7860 ho        1 MOL      0.408725
@<TRIPOS>BOND
     1    1    2 1   
     2    1    4 1   
     3    1    5 1   
     4    1    6 1   
     5    2    3 2   
     6    2    7 1   
     7    7    8 1   
     8    7   15 1   
     9    8    9 1   
    10    8   11 1   
    11    8   16 1   
    12    9   10 2   
    13    9   19 1   
    14   11   12 1   
    15   11   17 1   
    16   11   18 1   
    17   12   13 1   
    18   12   14 1   
    19   19   20 1   
    20   19   27 1   
    21   20   21 1   
    22   20   23 1   
    23   20   28 1   
    24   21   22 2   
    25   21   38 1   
    26   23   24 1   
    27   23   25 1   
    28   23   29 1   
    29   24   26 1   
    30   24   30 1   
    31   24   31 1   
    32   25   32 1   
    33   25   33 1   
    34   25   34 1   
    35   26   35 1   
    36   26   36 1   
    37   26   37 1   
    38   38   39 1   
    39   38   46 1   
    40   39   40 1   
    41   39   42 1   
    42   39   47 1   
    43   40   41 2   
    44   40   50 1   
    45   42   43 1   
    46   42   48 1   
    47   42   49 1   
    48   43   44 1   
    49   43   45 1   
    50   50   51 1   
    51   50   54 1   
    52   51   52 1   
    53   51   55 1   
    54   51   56 1   
    55   52   53 2   
    56   52   57 1   
    57   57   58 1   
    58   57   65 1   
    59   58   59 1   
    60   58   61 1   
    61   58   66 1   
    62   59   60 2   
    63   59   69 1   
    64   61   62 1   
    65   61   67 1   
    66   61   68 1   
    67   62   63 1   
    68   62   64 1   
    69   69   70 1   
    70   69   73 1   
    71   70   71 1   
    72   70   74 1   
    73   70   75 1   
    74   71   72 2   
    75   71   76 1   
    76   76   77 1   
    77   76   85 1   
    78   77   78 1   
    79   77   80 1   
    80   77   86 1   
    81   78   79 2   
    82   78   93 1   
    83   80   81 1   
    84   80   87 1   
    85   80   88 1   
    86   81   82 1   
    87   81   89 1   
    88   81   90 1   
    89   82   83 1   
    90   82   84 2   
    91   83   91 1   
    92   83   92 1   
    93   93   94 1   
    94   93  100 1   
    95   94   95 1   
    96   94   97 1   
    97   94  101 1   
    98   95   96 2   
    99   95  109 1   
   100   97   98 1   
   101   97   99 1   
   102   97  102 1   
   103   98  103 1   
   104   98  104 1   
   105   98  105 1   
   106   99  106 1   
   107   99  107 1   
   108   99  108 1   
   109  109  110 1   
   110  109  117 1   
   111  110  111 1   
   112  110  113 1   
   113  110  118 1   
   114  111  112 2   
   115  111  123 1   
   116  113  114 1   
   117  113  119 1   
   118  113  120 1   
   119  114  115 1   
   120  114  116 2   
   121  115  121 1   
   122  115  122 1   
   123  123  124 1   
   124  123  135 1   
   125  124  125 1   
   126  124  127 1   
   127  124  136 1   
   128  125  126 2   
   129  125  144 1   
   130  127  128 1   
   131  127  137 1   
   132  127  138 1   
   133  128  129 ar  
   134  128  130 ar  
   135  129  131 ar  
   136  129  139 1   
   137  130  132 ar  
   138  130  140 1   
   139  131  133 ar  
   140  131  141 1   
   141  132  133 ar  
   142  132  142 1   
   143  133  134 1   
   144  134  143 1   
   145  144  145 1   
   146  144  153 1   
   147  145  146 1   
   148  145  148 1   
   149  145  154 1   
   150  146  147 2   
   151  146  159 1   
   152  148  149 1   
   153  148  155 1   
   154  148  156 1   
   155  149  150 1   
   156  149  157 1   
   157  149  158 1   
   158  150  151 1   
   159  150  152 1   
   160  159  160 1   
   161  159  168 1   
   162  160  161 1   
   163  160  163 1   
   164  160  169 1   
   165  161  162 2   
   166  161  174 1   
   167  163  164 1   
   168  163  170 1   
   169  163  171 1   
   170  164  165 1   
   171  164  172 1   
   172  164  173 1   
   173  165  166 1   
   174  165  167 1   
   175  174  175 1   
   176  174  179 1   
   177  175  176 1   
   178  175  177 1   
   179  175  178 1   
   180  181  182 1   
   181  181  183 1   
   182  184  185 1   
   183  184  186 1   
@<TRIPOS>SUBSTRUCTURE
     1 MOL         1 TEMP              0 ****  ****    0 ROOT
