@<TRIPOS>MOLECULE
MOL
  179   176     1     0     0
SMALL
resp


@<TRIPOS>ATOM
      1 C1          1.9310    2.5650    5.4270 c3        1 MOL     -0.280397
      2 C2          1.2150    2.4340    4.1120 c         1 MOL      0.705974
      3 O1          1.8590    2.5030    3.0570 o         1 MOL     -0.604466
      4 H1          2.9640    2.8660    5.2500 hc        1 MOL      0.076318
      5 H2          1.4330    3.3180    6.0380 hc        1 MOL      0.076318
      6 H3          1.9160    1.6060    5.9450 hc        1 MOL      0.076318
      7 N1         -0.1190    2.2970    4.0960 n         1 MOL     -0.509565
      8 C3         -0.9340    2.1890    2.8910 c3        1 MOL      0.157535
      9 C4         -0.9710    3.5350    2.1530 c         1 MOL      0.385207
     10 O2         -1.7860    4.4150    2.5080 o         1 MOL     -0.472250
     11 C5         -2.3570    1.5900    3.2080 c3        1 MOL     -0.072483
     12 C6         -3.0640    1.0520    1.9480 c         1 MOL      0.552679
     13 O3         -2.6850    1.2950    0.7850 o         1 MOL     -0.610445
     14 O4         -4.1300    0.4120    2.0980 o         1 MOL     -0.610445
     15 H4         -0.5980    2.1750    4.9760 hn        1 MOL      0.291515
     16 H5         -0.4870    1.4600    2.2100 h1        1 MOL      0.043565
     17 H6         -2.9550    2.3810    3.6580 hc        1 MOL      0.027095
     18 H7         -2.2140    0.7480    3.8810 hc        1 MOL      0.027095
     19 N2          0.0800    3.7880    1.3210 n         1 MOL     -0.228150
     20 C7          0.4120    5.0970    0.7080 c3        1 MOL     -0.021981
     21 C8         -0.6390    5.5040   -0.2740 c         1 MOL      0.338356
     22 O5         -0.9990    6.6930   -0.2070 o         1 MOL     -0.519439
     23 C9          1.7900    4.9130    0.0600 c3        1 MOL      0.032135
     24 C10         2.5740    6.1970   -0.2270 c3        1 MOL     -0.066123
     25 C11         3.9370    5.7940   -0.8440 c3        1 MOL     -0.108103
     26 C12         4.4650    6.8220   -1.7370 c3        1 MOL      0.108611
     27 N3          5.8020    6.4220   -2.4120 n4        1 MOL     -0.377117
     28 H8          0.7160    3.0300    1.1360 hn        1 MOL      0.157372
     29 H9          0.5720    5.8900    1.4490 h1        1 MOL      0.091326
     30 H10         1.6820    4.3880   -0.8930 hc        1 MOL      0.055012
     31 H11         2.4410    4.3450    0.7250 hc        1 MOL      0.055012
     32 H12         2.6870    6.7710    0.7010 hc        1 MOL      0.047352
     33 H13         2.0160    6.7660   -0.9630 hc        1 MOL      0.047352
     34 H14         3.8260    4.9130   -1.4620 hc        1 MOL      0.081834
     35 H15         4.6520    5.6530   -0.0300 hc        1 MOL      0.081834
     36 H16         4.5960    7.8280   -1.3330 hx        1 MOL      0.062124
     37 H17         3.7270    6.8720   -2.5400 hx        1 MOL      0.062124
     38 H18         5.8880    6.9420   -3.2740 hn        1 MOL      0.326512
     39 H19         6.5970    6.4530   -1.7840 hn        1 MOL      0.326512
     40 H20         5.8200    5.4500   -2.6430 hn        1 MOL      0.326512
     41 N4         -1.1470    4.5560   -1.0460 n         1 MOL     -0.171584
     42 C13        -2.2420    4.9540   -1.9820 c3        1 MOL     -0.003961
     43 C14        -3.6570    4.8000   -1.3820 c         1 MOL      0.429988
     44 O6         -4.5700    5.4800   -1.8160 o         1 MOL     -0.526426
     45 C15        -2.2560    4.0540   -3.1740 c3        1 MOL     -0.204800
     46 C16        -2.0910    2.5660   -2.8010 c         1 MOL      0.701702
     47 O7         -0.9500    2.0620   -2.8500 o         1 MOL     -0.756266
     48 O8         -3.0850    1.9440   -2.3570 o         1 MOL     -0.756266
     49 H21        -0.7200    3.6440   -1.1040 hn        1 MOL      0.198623
     50 H22        -2.1010    5.9560   -2.3870 h1        1 MOL      0.094505
     51 H23        -1.3800    4.3240   -3.7670 hc        1 MOL      0.062179
     52 H24        -3.1640    4.1590   -3.7620 hc        1 MOL      0.062179
     53 N5         -3.7830    3.9820   -0.3080 n         1 MOL      0.113735
     54 C17        -5.0020    3.6510    0.4280 c3        1 MOL     -0.386897
     55 C18        -6.0160    2.9130   -0.4390 c         1 MOL      0.788053
     56 O9         -6.8740    3.4230   -1.1780 o         1 MOL     -0.560330
     57 H25        -2.9990    3.4580    0.0460 hn        1 MOL     -0.014563
     58 H26        -5.4900    4.5360    0.8280 h1        1 MOL      0.125290
     59 H27        -4.7310    3.0320    1.2800 h1        1 MOL      0.125290
     60 N6         -5.9640    1.5800   -0.1780 n         1 MOL     -0.677608
     61 C19        -6.9300    0.5230   -0.6880 c3        1 MOL      0.150154
     62 C20        -7.3760   -0.5790    0.3540 c         1 MOL      0.369863
     63 O10        -8.3280   -1.2430   -0.0110 o         1 MOL     -0.519031
     64 C21        -6.3100   -0.0860   -2.0150 c3        1 MOL     -0.408373
     65 C22        -5.2270   -1.1300   -1.8600 c         1 MOL      0.656926
     66 N7         -5.5790   -2.3170   -2.3450 n         1 MOL     -0.789192
     67 O11        -4.1590   -0.8610   -1.3730 o         1 MOL     -0.523716
     68 H28        -5.1690    1.2940    0.3770 hn        1 MOL      0.296700
     69 H29        -7.8710    1.0260   -0.9230 h1        1 MOL      0.097347
     70 H30        -5.8600    0.7780   -2.5120 hc        1 MOL      0.148078
     71 H31        -7.0910   -0.4400   -2.6770 hc        1 MOL      0.148078
     72 H32        -6.5510   -2.4210   -2.6150 hn        1 MOL      0.361636
     73 H33        -4.9660   -3.1120   -2.2210 hn        1 MOL      0.361636
     74 N8         -6.5790   -0.8160    1.4090 n         1 MOL     -0.047995
     75 C23        -6.7820   -1.8450    2.4080 c3        1 MOL     -0.204287
     76 C24        -5.6580   -2.9250    2.4610 c         1 MOL      0.603491
     77 O12        -5.7880   -3.9760    3.1210 o         1 MOL     -0.564114
     78 H34        -5.8820   -0.1370    1.6680 hn        1 MOL      0.149930
     79 H35        -7.7240   -2.3190    2.1370 h1        1 MOL      0.093391
     80 H36        -6.8470   -1.3890    3.3950 h1        1 MOL      0.093391
     81 N9         -4.5890   -2.6750    1.6980 n         1 MOL     -0.340883
     82 C25        -3.3270   -3.4020    1.8970 c3        1 MOL     -0.013358
     83 C26        -2.0150   -2.6890    1.4620 c         1 MOL      0.684779
     84 O13        -1.9700   -1.6350    0.7700 o         1 MOL     -0.679844
     85 C27        -3.4420   -4.7840    1.1810 c3        1 MOL     -0.200080
     86 C28        -3.5560   -4.7730   -0.3620 ca        1 MOL      0.083553
     87 C29        -2.4760   -4.2760   -1.1780 ca        1 MOL     -0.144809
     88 C30        -4.6740   -5.3260   -0.9810 ca        1 MOL     -0.144809
     89 C31        -2.5800   -4.3650   -2.5920 ca        1 MOL     -0.283271
     90 C32        -4.8020   -5.3890   -2.4150 ca        1 MOL     -0.283271
     91 C33        -3.6980   -4.9500   -3.2290 ca        1 MOL      0.345831
     92 O14        -3.7140   -5.0170   -4.5640 oh        1 MOL     -0.484999
     93 H37        -4.5690   -1.9780    0.9690 hn        1 MOL      0.217343
     94 H38        -3.2050   -3.6110    2.9620 h1        1 MOL      0.081162
     95 H39        -4.2490   -5.4060    1.5850 hc        1 MOL      0.081459
     96 H40        -2.4950   -5.2310    1.4910 hc        1 MOL      0.081459
     97 H41        -1.5740   -3.8620   -0.7460 ha        1 MOL      0.135035
     98 H42        -5.4350   -5.7680   -0.3560 ha        1 MOL      0.135035
     99 H43        -1.8770   -3.9540   -3.3000 ha        1 MOL      0.148321
    100 H44        -5.6730   -5.7660   -2.9150 ha        1 MOL      0.148321
    101 H45        -4.5370   -5.3880   -4.8970 ho        1 MOL      0.370233
    102 N10        -0.9310   -3.1570    1.9000 n         1 MOL     -0.376744
    103 C34         0.4830   -2.7830    1.6650 c3        1 MOL     -0.032794
    104 C35         1.3200   -3.7190    0.8580 c         1 MOL      0.529842
    105 O15         1.2400   -4.9090    0.9900 o         1 MOL     -0.558889
    106 C36         1.0800   -2.5780    3.1270 c3        1 MOL      0.054163
    107 C37         0.2230   -1.8660    4.1880 c3        1 MOL      0.138836
    108 C38         2.2930   -1.6960    2.8790 c3        1 MOL     -0.270721
    109 C39         0.6280   -2.2270    5.6390 c3        1 MOL     -0.225559
    110 H46        -1.0720   -3.9640    2.4900 hn        1 MOL      0.249284
    111 H47         0.4950   -1.8060    1.1850 h1        1 MOL      0.068539
    112 H48         1.4480   -3.5400    3.5040 hc        1 MOL      0.026860
    113 H49        -0.8580   -2.0230    4.0960 hc        1 MOL     -0.024633
    114 H50         0.4260   -0.7940    4.1030 hc        1 MOL     -0.024633
    115 H51         2.0980   -0.7180    2.4320 hc        1 MOL      0.052569
    116 H52         2.7890   -1.5870    3.8460 hc        1 MOL      0.052569
    117 H53         3.0160   -2.2020    2.2490 hc        1 MOL      0.052569
    118 H54         1.7200   -2.1510    5.7060 hc        1 MOL      0.055832
    119 H55         0.2910   -1.4590    6.3360 hc        1 MOL      0.055832
    120 H56         0.2030   -3.1730    5.9680 hc        1 MOL      0.055832
    121 N11         2.1540   -3.1670    0.0330 n         1 MOL     -0.088851
    122 C40         3.2760   -3.7860   -0.6900 c3        1 MOL     -0.165792
    123 C41         4.6500   -3.5820   -0.1190 c         1 MOL      0.597607
    124 O16         4.9110   -2.9060    0.8340 o         1 MOL     -0.465687
    125 C42         3.1900   -3.4370   -2.1750 c3        1 MOL     -0.107707
    126 O17         3.5560   -2.1700   -2.3340 oh        1 MOL     -0.525715
    127 H57         2.1400   -2.1590   -0.0420 hn        1 MOL      0.178157
    128 H58         3.1470   -4.8440   -0.4840 h1        1 MOL      0.076748
    129 H59         2.1720   -3.6780   -2.4780 h1        1 MOL      0.102380
    130 H60         3.7810   -4.1480   -2.7430 h1        1 MOL      0.102380
    131 H61         3.0130   -1.5630   -1.8440 ho        1 MOL      0.430507
    132 N12         5.6820   -4.1980   -0.7430 n         1 MOL     -0.456145
    133 C43         7.0930   -4.0080   -0.3770 c3        1 MOL      0.034553
    134 C44         7.6510   -2.6390   -0.9290 c         1 MOL      0.551715
    135 O18         8.6270   -2.1260   -0.3310 o         1 MOL     -0.527013
    136 C45         7.9250   -5.1510   -0.8920 c3        1 MOL     -0.367376
    137 H62         5.5290   -4.8990   -1.4630 hn        1 MOL      0.287620
    138 H63         7.1150   -4.0000    0.7110 h1        1 MOL      0.128790
    139 H64         7.6650   -6.1080   -0.4480 hc        1 MOL      0.116789
    140 H65         7.6800   -5.3800   -1.9260 hc        1 MOL      0.116789
    141 H66         8.9920   -4.9450   -0.8030 hc        1 MOL      0.116789
    142 N13         7.0660   -1.9520   -1.9350 n         1 MOL     -0.526987
    143 C46         7.4620   -0.5790   -2.3080 c3        1 MOL      0.279176
    144 C47         7.0640    0.5160   -1.3610 c         1 MOL      0.282085
    145 O19         7.8100    1.4400   -1.0870 o         1 MOL     -0.493174
    146 C48         7.0990   -0.3290   -3.7950 c3        1 MOL     -0.275080
    147 H67         6.2770   -2.3530   -2.4200 hn        1 MOL      0.297437
    148 H68         8.5490   -0.4860   -2.2720 h1        1 MOL      0.060330
    149 H69         7.8940   -0.6240   -4.4810 hc        1 MOL      0.073257
    150 H70         6.1210   -0.7850   -3.9320 hc        1 MOL      0.073257
    151 H71         6.9640    0.7480   -3.9240 hc        1 MOL      0.073257
    152 N14         5.8150    0.3930   -0.8820 n         1 MOL     -0.209202
    153 C49         5.3660    1.0610    0.2900 c3        1 MOL      0.157342
    154 C50         6.0890    0.6920    1.5160 c         1 MOL      0.525710
    155 O20         6.3890    1.5670    2.2860 o         1 MOL     -0.562372
    156 C51         3.9390    0.5690    0.4460 c3        1 MOL      0.035298
    157 C52         2.9360    1.4090   -0.4370 c3        1 MOL     -0.055651
    158 C53         1.6890    0.5190   -0.7600 c         1 MOL      1.031128
    159 O21         1.9700   -0.4820   -1.4410 o         1 MOL     -0.865133
    160 O22         0.5500    0.8680   -0.5060 o         1 MOL     -0.865133
    161 H72         5.2820   -0.3840   -1.2520 hn        1 MOL      0.155551
    162 H73         5.4040    2.1390    0.1720 h1        1 MOL     -0.038786
    163 H74         3.6860    0.7060    1.4910 hc        1 MOL     -0.006499
    164 H75         3.9010   -0.5110    0.2910 hc        1 MOL     -0.006499
    165 H76         3.3980    1.9040   -1.2870 hc        1 MOL     -0.052602
    166 H77         2.5690    2.2740    0.1230 hc        1 MOL     -0.052602
    167 N15         6.5510   -0.5710    1.6860 n         1 MOL     -0.169079
    168 C54         7.3470   -0.8360    2.8950 c3        1 MOL     -0.313176
    169 H78         8.0200   -1.6730    2.7100 h1        1 MOL      0.121146
    170 H79         7.9300    0.0490    3.1480 h1        1 MOL      0.121146
    171 H80         6.6810   -1.0820    3.7220 h1        1 MOL      0.121146
    172 H81         6.3570   -1.3090    1.0340 hn        1 MOL      0.160460
    173 Ca1        -1.7800    0.0110   -1.3010 Ca        1 MOL      1.791970
    174 O23        -0.0650   -2.1380   -2.1580 oh        1 MOL     -0.914166
    175 H82         0.2760   -2.5800   -2.9340 ho        1 MOL      0.438181
    176 H83         0.6260   -1.5300   -1.9020 ho        1 MOL      0.438181
    177 O24        -2.4810   -0.8370   -3.8170 oh        1 MOL     -0.914166
    178 H84        -2.8230   -0.0370   -4.2230 ho        1 MOL      0.438181
    179 H85        -2.5230   -1.4880   -4.5130 ho        1 MOL      0.438181
@<TRIPOS>BOND
     1    1    2 1   
     2    1    4 1   
     3    1    5 1   
     4    1    6 1   
     5    2    3 2   
     6    2    7 1   
     7    7    8 1   
     8    7   15 1   
     9    8    9 1   
    10    8   11 1   
    11    8   16 1   
    12    9   10 2   
    13    9   19 1   
    14   11   12 1   
    15   11   17 1   
    16   11   18 1   
    17   12   13 1   
    18   12   14 1   
    19   19   20 1   
    20   19   28 1   
    21   20   21 1   
    22   20   23 1   
    23   20   29 1   
    24   21   22 2   
    25   21   41 1   
    26   23   24 1   
    27   23   30 1   
    28   23   31 1   
    29   24   25 1   
    30   24   32 1   
    31   24   33 1   
    32   25   26 1   
    33   25   34 1   
    34   25   35 1   
    35   26   27 1   
    36   26   36 1   
    37   26   37 1   
    38   27   38 1   
    39   27   39 1   
    40   27   40 1   
    41   41   42 1   
    42   41   49 1   
    43   42   43 1   
    44   42   45 1   
    45   42   50 1   
    46   43   44 2   
    47   43   53 1   
    48   45   46 1   
    49   45   51 1   
    50   45   52 1   
    51   46   47 1   
    52   46   48 1   
    53   53   54 1   
    54   53   57 1   
    55   54   55 1   
    56   54   58 1   
    57   54   59 1   
    58   55   56 2   
    59   55   60 1   
    60   60   61 1   
    61   60   68 1   
    62   61   62 1   
    63   61   64 1   
    64   61   69 1   
    65   62   63 2   
    66   62   74 1   
    67   64   65 1   
    68   64   70 1   
    69   64   71 1   
    70   65   66 1   
    71   65   67 2   
    72   66   72 1   
    73   66   73 1   
    74   74   75 1   
    75   74   78 1   
    76   75   76 1   
    77   75   79 1   
    78   75   80 1   
    79   76   77 2   
    80   76   81 1   
    81   81   82 1   
    82   81   93 1   
    83   82   83 1   
    84   82   85 1   
    85   82   94 1   
    86   83   84 2   
    87   83  102 1   
    88   85   86 1   
    89   85   95 1   
    90   85   96 1   
    91   86   87 ar  
    92   86   88 ar  
    93   87   89 ar  
    94   87   97 1   
    95   88   90 ar  
    96   88   98 1   
    97   89   91 ar  
    98   89   99 1   
    99   90   91 ar  
   100   90  100 1   
   101   91   92 1   
   102   92  101 1   
   103  102  103 1   
   104  102  110 1   
   105  103  104 1   
   106  103  106 1   
   107  103  111 1   
   108  104  105 2   
   109  104  121 1   
   110  106  107 1   
   111  106  108 1   
   112  106  112 1   
   113  107  109 1   
   114  107  113 1   
   115  107  114 1   
   116  108  115 1   
   117  108  116 1   
   118  108  117 1   
   119  109  118 1   
   120  109  119 1   
   121  109  120 1   
   122  121  122 1   
   123  121  127 1   
   124  122  123 1   
   125  122  125 1   
   126  122  128 1   
   127  123  124 2   
   128  123  132 1   
   129  125  126 1   
   130  125  129 1   
   131  125  130 1   
   132  126  131 1   
   133  132  133 1   
   134  132  137 1   
   135  133  134 1   
   136  133  136 1   
   137  133  138 1   
   138  134  135 2   
   139  134  142 1   
   140  136  139 1   
   141  136  140 1   
   142  136  141 1   
   143  142  143 1   
   144  142  147 1   
   145  143  144 1   
   146  143  146 1   
   147  143  148 1   
   148  144  145 2   
   149  144  152 1   
   150  146  149 1   
   151  146  150 1   
   152  146  151 1   
   153  152  153 1   
   154  152  161 1   
   155  153  154 1   
   156  153  156 1   
   157  153  162 1   
   158  154  155 2   
   159  154  167 1   
   160  156  157 1   
   161  156  163 1   
   162  156  164 1   
   163  157  158 1   
   164  157  165 1   
   165  157  166 1   
   166  158  159 1   
   167  158  160 1   
   168  167  168 1   
   169  167  172 1   
   170  168  169 1   
   171  168  170 1   
   172  168  171 1   
   173  174  175 1   
   174  174  176 1   
   175  177  178 1   
   176  177  179 1   
@<TRIPOS>SUBSTRUCTURE
     1 MOL         1 TEMP              0 ****  ****    0 ROOT
