@<TRIPOS>MOLECULE
MOL
  189   185     1     0     0
SMALL
resp


@<TRIPOS>ATOM
      1 C1          0.9900   -5.0600    5.5220 c3        1 MOL     -0.445609
      2 C2          1.4240   -4.2200    4.3250 c         1 MOL      0.727560
      3 O1          1.1170   -3.0220    4.2340 o         1 MOL     -0.604470
      4 H1         -0.0820   -4.9410    5.6790 hc        1 MOL      0.114633
      5 H2          1.2150   -6.1090    5.3310 hc        1 MOL      0.114633
      6 H3          1.5250   -4.7300    6.4120 hc        1 MOL      0.114633
      7 N1          2.1590   -4.8020    3.3800 n         1 MOL     -0.540852
      8 C3          2.5440   -4.0160    2.1770 c3        1 MOL      0.160398
      9 C4          2.6770   -4.9340    0.8850 c         1 MOL      0.376196
     10 O2          3.1530   -6.1030    0.8110 o         1 MOL     -0.563062
     11 C5          3.8810   -3.3560    2.4740 c3        1 MOL     -0.201962
     12 C6          4.5790   -2.5220    1.4110 c         1 MOL      0.867889
     13 O3          5.6820   -2.0410    1.6520 o         1 MOL     -0.753083
     14 O4          4.0890   -2.2470    0.2750 o         1 MOL     -0.753083
     15 H4          2.4690   -5.7550    3.4110 hn        1 MOL      0.306281
     16 H5          1.8330   -3.2170    1.9880 h1        1 MOL      0.066442
     17 H6          4.5810   -4.0670    2.9020 hc        1 MOL      0.025391
     18 H7          3.6620   -2.6210    3.2510 hc        1 MOL      0.025391
     19 N2          2.0760   -4.4450   -0.2560 n         1 MOL      0.019488
     20 C7          1.8900   -5.2410   -1.4820 c3        1 MOL     -0.295098
     21 C8          2.8630   -4.8460   -2.6330 c         1 MOL      0.619265
     22 O5          2.9960   -5.5620   -3.6020 o         1 MOL     -0.593057
     23 C9          0.4240   -5.2260   -1.8880 c3        1 MOL      0.374125
     24 C10         0.0300   -3.9630   -2.7720 c3        1 MOL     -0.010365
     25 C11        -0.4860   -5.4280   -0.6550 c3        1 MOL     -0.271980
     26 C12        -1.0560   -4.2350   -3.7550 c3        1 MOL     -0.188211
     27 H8          1.6500   -3.5310   -0.2660 hn        1 MOL      0.066188
     28 H9          2.1640   -6.2640   -1.2490 h1        1 MOL      0.105572
     29 H10         0.4040   -6.1120   -2.5180 hc        1 MOL     -0.071067
     30 H11         0.8900   -3.5840   -3.3370 hc        1 MOL      0.056247
     31 H12        -0.2810   -3.2150   -2.0460 hc        1 MOL      0.056247
     32 H13        -0.6160   -4.4530   -0.1820 hc        1 MOL      0.044284
     33 H14        -1.3320   -5.9870   -1.0480 hc        1 MOL      0.044284
     34 H15         0.0390   -6.0520    0.0660 hc        1 MOL      0.044284
     35 H16        -0.8870   -5.1490   -4.3180 hc        1 MOL      0.032476
     36 H17        -1.9080   -4.4540   -3.1070 hc        1 MOL      0.032476
     37 H18        -1.2500   -3.4000   -4.4320 hc        1 MOL      0.032476
     38 N3          3.4460   -3.6700   -2.4830 n         1 MOL     -0.475232
     39 C13         4.1570   -2.9270   -3.6150 c3        1 MOL     -0.056344
     40 C14         5.4770   -2.2920   -3.1410 c         1 MOL      0.483003
     41 O6          6.2260   -1.6580   -3.8890 o         1 MOL     -0.588309
     42 C15         3.1150   -2.0180   -4.3760 c3        1 MOL     -0.132885
     43 C16         2.4140   -1.0450   -3.4250 c         1 MOL      0.734777
     44 O7          2.6230   -0.9730   -2.2030 o         1 MOL     -0.725889
     45 O8          1.5260   -0.2860   -3.9040 o         1 MOL     -0.725889
     46 H19         3.1330   -3.0360   -1.7650 hn        1 MOL      0.231259
     47 H20         4.4130   -3.6750   -4.3690 h1        1 MOL      0.102980
     48 H21         2.3160   -2.5990   -4.8330 hc        1 MOL      0.056495
     49 H22         3.5880   -1.4380   -5.1810 hc        1 MOL      0.056495
     50 N4          5.8450   -2.5140   -1.9310 n         1 MOL     -0.117124
     51 C17         7.0970   -2.3320   -1.2720 c3        1 MOL     -0.337388
     52 C18         7.4650   -0.8690   -0.8970 c         1 MOL      0.668682
     53 O9          8.6060   -0.5710   -0.5020 o         1 MOL     -0.666457
     54 H23         5.1000   -2.8470   -1.3270 hn        1 MOL      0.174718
     55 H24         7.9290   -2.7450   -1.8480 h1        1 MOL      0.128387
     56 H25         6.9900   -2.8210   -0.3020 h1        1 MOL      0.128387
     57 N5          6.6700    0.0950   -1.2520 n         1 MOL     -0.210166
     58 C19         7.0630    1.4540   -1.7370 c3        1 MOL      0.092940
     59 C20         7.1700    2.4870   -0.5300 c         1 MOL      0.365509
     60 O10         7.5490    3.6210   -0.8400 o         1 MOL     -0.536686
     61 C21         5.9870    1.7960   -2.6610 c3        1 MOL     -0.492234
     62 C22         4.5310    1.8540   -2.1580 c         1 MOL      0.913896
     63 O11         4.2150    1.4560   -1.0370 o         1 MOL     -0.712552
     64 O12         3.6940    2.3270   -2.9450 o         1 MOL     -0.712552
     65 H26         5.6760   -0.0860   -1.2450 hn        1 MOL      0.126709
     66 H27         8.0250    1.3520   -2.2360 h1        1 MOL      0.089678
     67 H28         5.9950    1.0640   -3.4740 hc        1 MOL      0.119846
     68 H29         6.2340    2.8150   -2.9670 hc        1 MOL      0.119846
     69 N6          6.8200    2.0910    0.6780 n         1 MOL     -0.163343
     70 C23         6.7860    3.0060    1.7670 c3        1 MOL     -0.364182
     71 C24         5.4990    3.8540    1.8510 c         1 MOL      0.561965
     72 O13         5.4340    4.7350    2.7440 o         1 MOL     -0.607227
     73 H30         6.3860    1.1930    0.8650 hn        1 MOL      0.235130
     74 H31         7.7110    3.5850    1.7080 h1        1 MOL      0.151652
     75 H32         6.8010    2.4510    2.7050 h1        1 MOL      0.151652
     76 N7          4.5010    3.7420    0.9640 n         1 MOL     -0.176227
     77 C25         3.1550    4.3650    1.0960 c3        1 MOL      0.005049
     78 C26         2.1770    3.2830    1.6220 c         1 MOL      0.372194
     79 O14         2.4580    2.0890    1.6490 o         1 MOL     -0.388936
     80 C27         2.8200    5.0480   -0.1990 c3        1 MOL      0.227699
     81 C28         3.8000    6.1970   -0.5990 c3        1 MOL     -0.401186
     82 C29         3.0630    7.2370   -1.3390 c         1 MOL      0.779250
     83 N8          2.6450    7.0580   -2.5830 n         1 MOL     -0.866572
     84 O15         2.8480    8.2710   -0.7970 o         1 MOL     -0.614110
     85 H33         4.5590    2.9330    0.3630 hn        1 MOL      0.142687
     86 H34         3.3990    5.1630    1.7970 h1        1 MOL      0.045953
     87 H35         1.7880    5.3840   -0.1370 hc        1 MOL     -0.040902
     88 H36         2.6960    4.2400   -0.9310 hc        1 MOL     -0.040902
     89 H37         4.4750    5.6630   -1.2630 hc        1 MOL      0.103211
     90 H38         4.3640    6.5520    0.2650 hc        1 MOL      0.103211
     91 H39         3.0800    6.2790   -3.0470 hn        1 MOL      0.382750
     92 H40         2.0390    7.7660   -2.9700 hn        1 MOL      0.382750
     93 N9          1.0120    3.7450    1.9960 n         1 MOL     -0.365313
     94 C30        -0.1490    2.9580    2.3860 c3        1 MOL     -0.046343
     95 C31        -1.4620    3.2230    1.5400 c         1 MOL      0.581885
     96 O16        -1.8970    4.3630    1.5980 o         1 MOL     -0.559810
     97 C32        -0.4290    3.0910    3.8690 c3        1 MOL      0.201081
     98 C33        -1.7640    2.4720    4.4050 c3        1 MOL     -0.250655
     99 C34         0.6730    2.2990    4.6870 c3        1 MOL     -0.250655
    100 H41         0.9290    4.7380    2.1370 hn        1 MOL      0.270339
    101 H42         0.1620    1.9220    2.2520 h1        1 MOL      0.102880
    102 H43        -0.4100    4.1540    4.1290 hc        1 MOL     -0.010873
    103 H44        -2.6490    3.0320    4.1060 hc        1 MOL      0.051069
    104 H45        -1.8270    1.4150    4.1230 hc        1 MOL      0.051069
    105 H46        -1.7470    2.4250    5.4900 hc        1 MOL      0.051069
    106 H47         0.9050    1.3210    4.2850 hc        1 MOL      0.051069
    107 H48         1.5900    2.8820    4.7480 hc        1 MOL      0.051069
    108 H49         0.3210    2.1960    5.7080 hc        1 MOL      0.051069
    109 N10        -1.8220    2.2740    0.6440 n         1 MOL     -0.521196
    110 C35        -3.1130    2.3840   -0.1370 c3        1 MOL      0.242406
    111 C36        -4.3940    2.1710    0.7300 c         1 MOL      0.096453
    112 O17        -4.2430    1.6840    1.8370 o         1 MOL     -0.231442
    113 C37        -3.0080    1.4150   -1.3200 c3        1 MOL     -0.343146
    114 C38        -4.2340    1.3930   -2.1940 c         1 MOL      0.648156
    115 N11        -4.4380    2.4340   -2.9560 n         1 MOL     -0.709324
    116 O18        -4.8990    0.3650   -2.2510 o         1 MOL     -0.522950
    117 H50        -1.2210    1.4820    0.4910 hn        1 MOL      0.338283
    118 H51        -3.2030    3.4030   -0.5040 h1        1 MOL      0.034905
    119 H52        -2.8650    0.4010   -0.9570 hc        1 MOL      0.138314
    120 H53        -2.0990    1.7340   -1.8420 hc        1 MOL      0.138314
    121 H54        -3.9930    3.3170   -2.7610 hn        1 MOL      0.332701
    122 H55        -5.1100    2.3690   -3.7100 hn        1 MOL      0.332701
    123 N12        -5.5870    2.5120    0.2930 n         1 MOL     -0.137352
    124 C39        -6.8300    2.0310    0.8730 c3        1 MOL      0.095934
    125 C40        -6.9980    0.4940    1.0210 c         1 MOL      0.327984
    126 O19        -7.5800    0.0790    2.0170 o         1 MOL     -0.563677
    127 C41        -8.0010    2.6510    0.1870 c3        1 MOL     -0.263048
    128 C42        -8.0280    2.4650   -1.3020 ca        1 MOL      0.038574
    129 C43        -7.8200    3.5540   -2.1140 ca        1 MOL     -0.094074
    130 C44        -8.2830    1.2350   -1.8900 ca        1 MOL     -0.094074
    131 C45        -8.0040    3.4810   -3.5330 ca        1 MOL     -0.357116
    132 C46        -8.3940    1.0890   -3.2810 ca        1 MOL     -0.357116
    133 C47        -8.2550    2.2220   -4.0720 ca        1 MOL      0.520310
    134 O20        -8.4450    2.0910   -5.4290 oh        1 MOL     -0.636688
    135 H56        -5.7190    3.0330   -0.5660 hn        1 MOL      0.123254
    136 H57        -6.9320    2.4000    1.9010 h1        1 MOL      0.049024
    137 H58        -8.0060    3.7080    0.4480 hc        1 MOL      0.100791
    138 H59        -8.9590    2.2860    0.5550 hc        1 MOL      0.100791
    139 H60        -7.5180    4.5000   -1.7050 ha        1 MOL      0.091071
    140 H61        -8.4230    0.4280   -1.1780 ha        1 MOL      0.091071
    141 H62        -7.7180    4.2940   -4.1960 ha        1 MOL      0.142365
    142 H63        -8.6450    0.1580   -3.7610 ha        1 MOL      0.142365
    143 H64        -8.6790    1.1980   -5.6930 ho        1 MOL      0.435087
    144 N13        -6.3410   -0.3290    0.2350 n         1 MOL      0.082035
    145 C48        -6.3700   -1.7450    0.3770 c3        1 MOL     -0.098661
    146 C49        -5.4210   -2.2680    1.4170 c         1 MOL      0.410292
    147 O21        -5.6200   -3.3730    1.9460 o         1 MOL     -0.504905
    148 C50        -6.0320   -2.4040   -0.9560 c3        1 MOL      0.068100
    149 C51        -6.9890   -2.3150   -2.1040 c3        1 MOL     -0.104102
    150 C52        -8.3320   -2.9620   -1.7180 c         1 MOL      0.630270
    151 O22        -8.3730   -4.0030   -1.0550 o         1 MOL     -0.698141
    152 O23        -9.4020   -2.3850   -2.1100 o         1 MOL     -0.698141
    153 H65        -5.9190    0.0970   -0.5810 hn        1 MOL      0.357786
    154 H66        -7.3710   -2.0050    0.7290 h1        1 MOL      0.121232
    155 H67        -6.0120   -3.4320   -0.5990 hc        1 MOL     -0.012647
    156 H68        -5.0240   -2.1370   -1.2650 hc        1 MOL     -0.012647
    157 H69        -6.6050   -2.8680   -2.9710 hc        1 MOL     -0.019896
    158 H70        -6.9800   -1.2440   -2.2850 hc        1 MOL     -0.019896
    159 N14        -4.3620   -1.5200    1.6610 n         1 MOL     -0.113244
    160 C53        -3.4070   -1.7220    2.7550 c3        1 MOL     -0.027431
    161 C54        -3.8650   -1.1960    4.0710 c         1 MOL      0.411001
    162 O24        -3.9580   -1.9260    5.0700 o         1 MOL     -0.539378
    163 C55        -2.0520   -1.1470    2.3160 c3        1 MOL      0.056638
    164 C56        -1.4670   -1.8310    1.0530 c3        1 MOL     -0.088662
    165 C57        -0.2260   -1.2540    0.5480 c         1 MOL      0.854994
    166 O25         0.7050   -2.0600    0.2160 o         1 MOL     -0.781965
    167 O26        -0.1250   -0.0190    0.5320 o         1 MOL     -0.781965
    168 H71        -4.3070   -0.6140    1.2300 hn        1 MOL     -0.156181
    169 H72        -3.2930   -2.7990    2.9270 h1        1 MOL      0.072962
    170 H73        -1.3530   -1.2040    3.1600 hc        1 MOL      0.018599
    171 H74        -2.2410   -0.0910    2.1230 hc        1 MOL      0.018599
    172 H75        -2.2290   -1.7170    0.2870 hc        1 MOL      0.008666
    173 H76        -1.3650   -2.8890    1.2920 hc        1 MOL      0.008666
    174 N15        -4.3550    0.0810    4.0450 n         1 MOL      0.005375
    175 C58        -4.8130    0.7240    5.2440 c3        1 MOL     -0.156713
    176 H77        -5.8740    0.9560    5.1490 h1        1 MOL      0.051755
    177 H78        -4.6620    0.0600    6.0940 h1        1 MOL      0.051755
    178 H79        -4.2530    1.6470    5.3990 h1        1 MOL      0.051755
    179 H80        -4.3750    0.6630    3.2180 hn        1 MOL      0.051170
    180 Ca1         2.5460   -0.0920    0.1440 Ca        1 MOL      1.743480
    181 O27         1.9810   -0.7900    2.8480 oh        1 MOL     -0.921671
    182 H81         1.2890   -1.4010    3.1330 ho        1 MOL      0.429238
    183 H82         2.5710   -0.7340    3.5990 ho        1 MOL      0.429238
    184 O28         4.8290    0.3560    2.1360 oh        1 MOL     -0.921671
    185 H83         5.3070   -0.4500    1.9310 ho        1 MOL      0.429238
    186 H84         4.7010    0.3310    3.0840 ho        1 MOL      0.429238
    187 O29         1.3800    1.5370   -1.7540 oh        1 MOL     -0.921671
    188 H85         1.1690    0.9970   -2.5190 ho        1 MOL      0.429238
    189 H86         2.1500    2.0410   -2.0190 ho        1 MOL      0.429238
@<TRIPOS>BOND
     1    1    2 1   
     2    1    4 1   
     3    1    5 1   
     4    1    6 1   
     5    2    3 2   
     6    2    7 1   
     7    7    8 1   
     8    7   15 1   
     9    8    9 1   
    10    8   11 1   
    11    8   16 1   
    12    9   10 2   
    13    9   19 1   
    14   11   12 1   
    15   11   17 1   
    16   11   18 1   
    17   12   13 1   
    18   12   14 1   
    19   19   20 1   
    20   19   27 1   
    21   20   21 1   
    22   20   23 1   
    23   20   28 1   
    24   21   22 2   
    25   21   38 1   
    26   23   24 1   
    27   23   25 1   
    28   23   29 1   
    29   24   26 1   
    30   24   30 1   
    31   24   31 1   
    32   25   32 1   
    33   25   33 1   
    34   25   34 1   
    35   26   35 1   
    36   26   36 1   
    37   26   37 1   
    38   38   39 1   
    39   38   46 1   
    40   39   40 1   
    41   39   42 1   
    42   39   47 1   
    43   40   41 2   
    44   40   50 1   
    45   42   43 1   
    46   42   48 1   
    47   42   49 1   
    48   43   44 1   
    49   43   45 1   
    50   50   51 1   
    51   50   54 1   
    52   51   52 1   
    53   51   55 1   
    54   51   56 1   
    55   52   53 2   
    56   52   57 1   
    57   57   58 1   
    58   57   65 1   
    59   58   59 1   
    60   58   61 1   
    61   58   66 1   
    62   59   60 2   
    63   59   69 1   
    64   61   62 1   
    65   61   67 1   
    66   61   68 1   
    67   62   63 1   
    68   62   64 1   
    69   69   70 1   
    70   69   73 1   
    71   70   71 1   
    72   70   74 1   
    73   70   75 1   
    74   71   72 2   
    75   71   76 1   
    76   76   77 1   
    77   76   85 1   
    78   77   78 1   
    79   77   80 1   
    80   77   86 1   
    81   78   79 2   
    82   78   93 1   
    83   80   81 1   
    84   80   87 1   
    85   80   88 1   
    86   81   82 1   
    87   81   89 1   
    88   81   90 1   
    89   82   83 1   
    90   82   84 2   
    91   83   91 1   
    92   83   92 1   
    93   93   94 1   
    94   93  100 1   
    95   94   95 1   
    96   94   97 1   
    97   94  101 1   
    98   95   96 2   
    99   95  109 1   
   100   97   98 1   
   101   97   99 1   
   102   97  102 1   
   103   98  103 1   
   104   98  104 1   
   105   98  105 1   
   106   99  106 1   
   107   99  107 1   
   108   99  108 1   
   109  109  110 1   
   110  109  117 1   
   111  110  111 1   
   112  110  113 1   
   113  110  118 1   
   114  111  112 2   
   115  111  123 1   
   116  113  114 1   
   117  113  119 1   
   118  113  120 1   
   119  114  115 1   
   120  114  116 2   
   121  115  121 1   
   122  115  122 1   
   123  123  124 1   
   124  123  135 1   
   125  124  125 1   
   126  124  127 1   
   127  124  136 1   
   128  125  126 2   
   129  125  144 1   
   130  127  128 1   
   131  127  137 1   
   132  127  138 1   
   133  128  129 ar  
   134  128  130 ar  
   135  129  131 ar  
   136  129  139 1   
   137  130  132 ar  
   138  130  140 1   
   139  131  133 ar  
   140  131  141 1   
   141  132  133 ar  
   142  132  142 1   
   143  133  134 1   
   144  134  143 1   
   145  144  145 1   
   146  144  153 1   
   147  145  146 1   
   148  145  148 1   
   149  145  154 1   
   150  146  147 2   
   151  146  159 1   
   152  148  149 1   
   153  148  155 1   
   154  148  156 1   
   155  149  150 1   
   156  149  157 1   
   157  149  158 1   
   158  150  151 1   
   159  150  152 1   
   160  159  160 1   
   161  159  168 1   
   162  160  161 1   
   163  160  163 1   
   164  160  169 1   
   165  161  162 2   
   166  161  174 1   
   167  163  164 1   
   168  163  170 1   
   169  163  171 1   
   170  164  165 1   
   171  164  172 1   
   172  164  173 1   
   173  165  166 1   
   174  165  167 1   
   175  174  175 1   
   176  174  179 1   
   177  175  176 1   
   178  175  177 1   
   179  175  178 1   
   180  181  182 1   
   181  181  183 1   
   182  184  185 1   
   183  184  186 1   
   184  187  188 1   
   185  187  189 1   
@<TRIPOS>SUBSTRUCTURE
     1 MOL         1 TEMP              0 ****  ****    0 ROOT
