@<TRIPOS>MOLECULE
MOL
  189   185     1     0     0
SMALL
resp


@<TRIPOS>ATOM
      1 C1          2.0770   -3.1130    6.2970 c3        1 MOL     -0.460048
      2 C2          2.1220   -2.9570    4.7680 c         1 MOL      0.748450
      3 O1          1.3580   -2.1380    4.2240 o         1 MOL     -0.602010
      4 H1          2.8230   -3.8440    6.6090 hc        1 MOL      0.118050
      5 H2          2.2900   -2.1530    6.7670 hc        1 MOL      0.118050
      6 H3          1.0860   -3.4530    6.5990 hc        1 MOL      0.118050
      7 N1          3.0120   -3.6860    4.0380 n         1 MOL     -0.670534
      8 C3          3.4190   -3.2370    2.6860 c3        1 MOL      0.369186
      9 C4          3.5600   -4.4950    1.7730 c         1 MOL      0.345528
     10 O2          4.2780   -5.4450    2.1560 o         1 MOL     -0.554794
     11 C5          4.7210   -2.3880    2.8280 c3        1 MOL     -0.220874
     12 C6          5.2280   -1.8620    1.5060 c         1 MOL      0.826615
     13 O3          4.3430   -1.5810    0.6310 o         1 MOL     -0.713692
     14 O4          6.4220   -1.4990    1.3510 o         1 MOL     -0.713692
     15 H4          3.7710   -4.1450    4.5290 hn        1 MOL      0.330023
     16 H5          2.6700   -2.5800    2.2340 h1        1 MOL      0.026687
     17 H6          5.4060   -3.0540    3.3560 hc        1 MOL     -0.009604
     18 H7          4.4150   -1.5310    3.4300 hc        1 MOL     -0.009604
     19 N2          3.0590   -4.4840    0.5480 n         1 MOL     -0.225163
     20 C7          3.2430   -5.5230   -0.4770 c3        1 MOL     -0.034063
     21 C8          4.0450   -4.9910   -1.6540 c         1 MOL      0.561650
     22 O5          4.7110   -5.7370   -2.3900 o         1 MOL     -0.610799
     23 C9          1.8430   -6.0660   -1.0060 c3        1 MOL      0.156838
     24 C10         0.7590   -6.3550    0.0990 c3        1 MOL      0.121858
     25 C11         2.0770   -7.3120   -1.9630 c3        1 MOL     -0.183895
     26 C12        -0.6050   -6.8060   -0.4480 c3        1 MOL     -0.297068
     27 H8          2.4790   -3.6940    0.2970 hn        1 MOL      0.216833
     28 H9          3.8390   -6.3510   -0.0880 h1        1 MOL      0.073892
     29 H10         1.3790   -5.3170   -1.6470 hc        1 MOL      0.007718
     30 H11         0.6300   -5.4630    0.7220 hc        1 MOL     -0.042809
     31 H12         1.1580   -7.1860    0.6730 hc        1 MOL     -0.042809
     32 H13         1.1730   -7.7050   -2.4170 hc        1 MOL      0.033272
     33 H14         2.8350   -7.2350   -2.7470 hc        1 MOL      0.033272
     34 H15         2.4400   -8.1630   -1.3790 hc        1 MOL      0.033272
     35 H16        -1.0460   -5.9770   -1.0160 hc        1 MOL      0.069970
     36 H17        -0.4940   -7.5480   -1.2310 hc        1 MOL      0.069970
     37 H18        -1.2600   -7.0220    0.4010 hc        1 MOL      0.069970
     38 N3          3.9800   -3.7250   -1.9580 n         1 MOL     -0.363130
     39 C13         4.4140   -3.1670   -3.2700 c3        1 MOL     -0.020106
     40 C14         5.7220   -2.2570   -3.2360 c         1 MOL      0.429129
     41 O6          6.2190   -1.7490   -4.2130 o         1 MOL     -0.521144
     42 C15         3.2100   -2.4670   -3.9270 c3        1 MOL     -0.169513
     43 C16         2.4450   -1.3700   -3.1790 c         1 MOL      0.768166
     44 O7          2.7810   -1.0410   -2.0270 o         1 MOL     -0.718815
     45 O8          1.4720   -0.7970   -3.6700 o         1 MOL     -0.718815
     46 H19         3.4870   -3.1560   -1.2780 hn        1 MOL      0.225311
     47 H20         4.7230   -4.0400   -3.8390 h1        1 MOL      0.107133
     48 H21         2.4800   -3.2570   -4.1380 hc        1 MOL      0.049468
     49 H22         3.5230   -2.1750   -4.9250 hc        1 MOL      0.049468
     50 N4          6.1080   -1.9710   -1.9740 n         1 MOL     -0.121638
     51 C17         7.3850   -1.2670   -1.6860 c3        1 MOL     -0.306023
     52 C18         7.4520    0.1890   -2.0520 c         1 MOL      0.577576
     53 O9          8.5320    0.7500   -2.1990 o         1 MOL     -0.595580
     54 H23         5.5490   -2.1520   -1.1510 hn        1 MOL      0.107523
     55 H24         8.1750   -1.8070   -2.2040 h1        1 MOL      0.132503
     56 H25         7.6580   -1.3620   -0.6320 h1        1 MOL      0.132503
     57 N5          6.3400    0.8750   -2.1140 n         1 MOL     -0.297971
     58 C19         6.1870    2.2250   -2.6780 c3        1 MOL      0.145647
     59 C20         6.6220    3.3400   -1.7000 c         1 MOL      0.442602
     60 O10         7.5640    4.0670   -2.0190 o         1 MOL     -0.551976
     61 C21         4.8370    2.5930   -3.3590 c3        1 MOL     -0.480914
     62 C22         3.6260    2.3780   -2.4960 c         1 MOL      0.830675
     63 O11         3.6360    1.9930   -1.2880 o         1 MOL     -0.716055
     64 O12         2.5270    2.6920   -3.0590 o         1 MOL     -0.716055
     65 H26         5.4750    0.4150   -1.8600 hn        1 MOL      0.211417
     66 H27         6.9410    2.2160   -3.4720 h1        1 MOL      0.054834
     67 H28         4.6530    1.8550   -4.1470 hc        1 MOL      0.146854
     68 H29         4.8960    3.6080   -3.7650 hc        1 MOL      0.146854
     69 N6          5.9130    3.5270   -0.5690 n         1 MOL     -0.146739
     70 C23         5.9970    4.7470    0.2660 c3        1 MOL     -0.098690
     71 C24         4.6610    5.0930    0.9620 c         1 MOL      0.590754
     72 O13         4.7110    6.0280    1.7160 o         1 MOL     -0.598254
     73 H30         5.1530    2.9530   -0.2330 hn        1 MOL     -0.027608
     74 H31         6.2150    5.6230   -0.3530 h1        1 MOL      0.076844
     75 H32         6.7560    4.6470    1.0480 h1        1 MOL      0.076844
     76 N7          3.5180    4.4350    0.6300 n         1 MOL     -0.399185
     77 C25         2.2400    4.7490    1.2040 c3        1 MOL      0.091566
     78 C26         1.4370    3.5130    1.5030 c         1 MOL      0.563737
     79 O14         1.4620    2.5690    0.7460 o         1 MOL     -0.529299
     80 C27         1.3960    5.6740    0.3180 c3        1 MOL     -0.063841
     81 C28         1.7720    7.1450    0.4310 c3        1 MOL     -0.298012
     82 C29         0.9860    8.0060   -0.5830 c         1 MOL      0.733040
     83 N8          0.9190    7.6760   -1.8740 n         1 MOL     -0.864694
     84 O15         0.4070    9.0060   -0.2530 o         1 MOL     -0.583791
     85 H33         3.6250    3.5630    0.1340 hn        1 MOL      0.276405
     86 H34         2.3510    5.2950    2.1390 h1        1 MOL      0.036740
     87 H35         0.3730    5.6050    0.6850 hc        1 MOL      0.037513
     88 H36         1.4910    5.2550   -0.6860 hc        1 MOL      0.037513
     89 H37         2.8190    7.3220    0.1750 hc        1 MOL      0.110288
     90 H38         1.5250    7.5550    1.4030 hc        1 MOL      0.110288
     91 H39         1.4090    6.8610   -2.2030 hn        1 MOL      0.382633
     92 H40         0.1950    8.0100   -2.4990 hn        1 MOL      0.382633
     93 N9          0.7950    3.5120    2.6510 n         1 MOL     -0.586593
     94 C30        -0.2570    2.5420    2.9080 c3        1 MOL     -0.006214
     95 C31        -1.5390    2.9610    2.2170 c         1 MOL      0.376740
     96 O16        -2.1770    3.9620    2.4610 o         1 MOL     -0.545703
     97 C32        -0.4760    2.2700    4.4370 c3        1 MOL      0.207631
     98 C33        -1.8240    1.7260    4.8320 c3        1 MOL     -0.238513
     99 C34         0.5990    1.3540    5.0380 c3        1 MOL     -0.238513
    100 H41         0.7180    4.3490    3.2140 hn        1 MOL      0.322994
    101 H42         0.1050    1.6170    2.4500 h1        1 MOL      0.211144
    102 H43        -0.3870    3.2170    4.9710 hc        1 MOL     -0.011884
    103 H44        -1.9290    1.3980    5.8720 hc        1 MOL      0.049839
    104 H45        -2.5920    2.4750    4.6200 hc        1 MOL      0.049839
    105 H46        -2.0790    0.9360    4.1250 hc        1 MOL      0.049839
    106 H47         0.5090    0.4140    4.4830 hc        1 MOL      0.049839
    107 H48         1.5990    1.6900    4.7390 hc        1 MOL      0.049839
    108 H49         0.5590    1.3160    6.1200 hc        1 MOL      0.049839
    109 N10        -1.9740    2.1120    1.2590 n         1 MOL      0.002131
    110 C35        -3.2060    2.3190    0.4550 c3        1 MOL      0.065894
    111 C36        -4.5230    1.7790    1.0340 c         1 MOL      0.347575
    112 O17        -4.5120    0.9640    1.9580 o         1 MOL     -0.448372
    113 C37        -2.8680    2.0210   -0.9570 c3        1 MOL      0.092290
    114 C38        -3.0470    0.5860   -1.4720 c         1 MOL      0.557611
    115 N11        -1.9600   -0.1510   -1.6390 n         1 MOL     -0.627160
    116 O18        -4.1330    0.1270   -1.8530 o         1 MOL     -0.543794
    117 H50        -1.4780    1.2390    1.1800 hn        1 MOL     -0.020926
    118 H51        -3.3930    3.3910    0.4560 h1        1 MOL      0.034738
    119 H52        -1.8260    2.2980   -1.0940 hc        1 MOL     -0.037314
    120 H53        -3.4590    2.6690   -1.5970 hc        1 MOL     -0.037314
    121 H54        -1.0690    0.2490   -1.3980 hn        1 MOL      0.359944
    122 H55        -2.0880   -1.1150   -1.9110 hn        1 MOL      0.359944
    123 N12        -5.6660    2.1070    0.4460 n         1 MOL     -0.269820
    124 C39        -6.9580    1.7330    0.9570 c3        1 MOL      0.016460
    125 C40        -7.2810    0.2160    0.7020 c         1 MOL      0.485926
    126 O19        -8.2210   -0.2530    1.2740 o         1 MOL     -0.559873
    127 C41        -8.0670    2.6870    0.3990 c3        1 MOL     -0.097973
    128 C42        -8.3890    2.4210   -1.0110 ca        1 MOL      0.122979
    129 C43        -9.4040    1.5080   -1.2520 ca        1 MOL     -0.267155
    130 C44        -7.5220    2.8560   -2.0400 ca        1 MOL     -0.267155
    131 C45        -9.6240    1.0340   -2.5590 ca        1 MOL     -0.184495
    132 C46        -7.7110    2.2850   -3.3530 ca        1 MOL     -0.184495
    133 C47        -8.6560    1.2780   -3.5870 ca        1 MOL      0.207471
    134 O20        -8.7000    0.7050   -4.8580 oh        1 MOL     -0.436381
    135 H56        -5.5610    2.9070   -0.1640 hn        1 MOL      0.234031
    136 H57        -6.9770    1.7970    2.0490 h1        1 MOL      0.080648
    137 H58        -7.7780    3.7340    0.4630 hc        1 MOL      0.026941
    138 H59        -8.9630    2.5750    1.0140 hc        1 MOL      0.026941
    139 H60       -10.0700    1.1720   -0.4810 ha        1 MOL      0.165907
    140 H61        -6.6120    3.4150   -1.9070 ha        1 MOL      0.165907
    141 H62       -10.4510    0.3960   -2.8270 ha        1 MOL      0.141844
    142 H63        -7.1670    2.5900   -4.2320 ha        1 MOL      0.141844
    143 H64        -9.2940   -0.0400   -4.8920 ho        1 MOL      0.366149
    144 N13        -6.5280   -0.5160   -0.2000 n         1 MOL     -0.071452
    145 C48        -6.8100   -1.9370   -0.3920 c3        1 MOL      0.009429
    146 C49        -5.9380   -2.6740    0.6460 c         1 MOL      0.293784
    147 O21        -6.2240   -3.8460    0.8790 o         1 MOL     -0.567454
    148 C50        -6.3970   -2.4810   -1.7690 c3        1 MOL     -0.019338
    149 C51        -7.1000   -1.7970   -2.9480 c3        1 MOL     -0.203647
    150 C52        -6.6810   -2.4300   -4.2940 c         1 MOL      0.716029
    151 O22        -7.4980   -3.2720   -4.7590 o         1 MOL     -0.744761
    152 O23        -5.7070   -1.9650   -4.8930 o         1 MOL     -0.744761
    153 H65        -5.7890   -0.0800   -0.7250 hn        1 MOL      0.065880
    154 H66        -7.8740   -2.1450   -0.2450 h1        1 MOL      0.073395
    155 H67        -6.6300   -3.5320   -1.9090 hc        1 MOL      0.035878
    156 H68        -5.3060   -2.4090   -1.8170 hc        1 MOL      0.035878
    157 H69        -6.7050   -0.7780   -2.9320 hc        1 MOL      0.045467
    158 H70        -8.1610   -1.8890   -2.7330 hc        1 MOL      0.045467
    159 N14        -4.9640   -2.0410    1.1590 n         1 MOL     -0.000360
    160 C53        -3.7780   -2.5650    1.9050 c3        1 MOL     -0.205047
    161 C54        -3.9100   -2.2770    3.4770 c         1 MOL      0.489592
    162 O24        -3.1490   -2.8860    4.2470 o         1 MOL     -0.520111
    163 C55        -2.5520   -1.8970    1.3030 c3        1 MOL      0.123286
    164 C56        -1.0940   -2.4420    1.7720 c3        1 MOL     -0.666994
    165 C57        -0.0020   -1.5880    0.9860 c         1 MOL      0.876410
    166 O25        -0.1700   -0.3350    0.7350 o         1 MOL     -0.776096
    167 O26         1.0060   -2.1330    0.5580 o         1 MOL     -0.776096
    168 H71        -4.8810   -1.0640    0.9510 hn        1 MOL     -0.049723
    169 H72        -3.6560   -3.6380    1.7370 h1        1 MOL      0.141508
    170 H73        -2.5770   -0.8570    1.6250 hc        1 MOL      0.082329
    171 H74        -2.6390   -1.8560    0.2200 hc        1 MOL      0.082329
    172 H75        -1.0480   -3.4860    1.4520 hc        1 MOL      0.215962
    173 H76        -0.9970   -2.4490    2.8510 hc        1 MOL      0.215962
    174 N15        -4.8850   -1.4800    3.9790 n         1 MOL     -0.318505
    175 C58        -4.8670   -0.9790    5.3870 c3        1 MOL     -0.162535
    176 H77        -5.5870   -0.1680    5.4930 h1        1 MOL      0.087922
    177 H78        -5.1310   -1.7900    6.0660 h1        1 MOL      0.087922
    178 H79        -3.8690   -0.6120    5.6300 h1        1 MOL      0.087922
    179 H80        -5.3820   -0.9260    3.2970 hn        1 MOL      0.246247
    180 Ca1         2.3090    0.1470    0.1490 Ca        1 MOL      1.693251
    181 O27         4.3570    1.4700    1.3580 oh        1 MOL     -0.790883
    182 H81         5.2240    1.3330    0.9820 ho        1 MOL      0.403717
    183 H82         4.5310    1.7150    2.2640 ho        1 MOL      0.403717
    184 O28         2.3630   -0.1260    2.7930 oh        1 MOL     -0.790883
    185 H83         3.0050   -0.1050    3.4910 ho        1 MOL      0.403717
    186 H84         1.6870   -0.7300    3.1100 ho        1 MOL      0.403717
    187 O29         0.6640    1.0380   -1.9410 oh        1 MOL     -0.790883
    188 H85         0.9220    0.4920   -2.6950 ho        1 MOL      0.403717
    189 H86         1.0900    1.8830   -2.1050 ho        1 MOL      0.403717
@<TRIPOS>BOND
     1    1    2 1   
     2    1    4 1   
     3    1    5 1   
     4    1    6 1   
     5    2    3 2   
     6    2    7 1   
     7    7    8 1   
     8    7   15 1   
     9    8    9 1   
    10    8   11 1   
    11    8   16 1   
    12    9   10 2   
    13    9   19 1   
    14   11   12 1   
    15   11   17 1   
    16   11   18 1   
    17   12   13 1   
    18   12   14 1   
    19   19   20 1   
    20   19   27 1   
    21   20   21 1   
    22   20   23 1   
    23   20   28 1   
    24   21   22 2   
    25   21   38 1   
    26   23   24 1   
    27   23   25 1   
    28   23   29 1   
    29   24   26 1   
    30   24   30 1   
    31   24   31 1   
    32   25   32 1   
    33   25   33 1   
    34   25   34 1   
    35   26   35 1   
    36   26   36 1   
    37   26   37 1   
    38   38   39 1   
    39   38   46 1   
    40   39   40 1   
    41   39   42 1   
    42   39   47 1   
    43   40   41 2   
    44   40   50 1   
    45   42   43 1   
    46   42   48 1   
    47   42   49 1   
    48   43   44 1   
    49   43   45 1   
    50   50   51 1   
    51   50   54 1   
    52   51   52 1   
    53   51   55 1   
    54   51   56 1   
    55   52   53 2   
    56   52   57 1   
    57   57   58 1   
    58   57   65 1   
    59   58   59 1   
    60   58   61 1   
    61   58   66 1   
    62   59   60 2   
    63   59   69 1   
    64   61   62 1   
    65   61   67 1   
    66   61   68 1   
    67   62   63 1   
    68   62   64 1   
    69   69   70 1   
    70   69   73 1   
    71   70   71 1   
    72   70   74 1   
    73   70   75 1   
    74   71   72 2   
    75   71   76 1   
    76   76   77 1   
    77   76   85 1   
    78   77   78 1   
    79   77   80 1   
    80   77   86 1   
    81   78   79 2   
    82   78   93 1   
    83   80   81 1   
    84   80   87 1   
    85   80   88 1   
    86   81   82 1   
    87   81   89 1   
    88   81   90 1   
    89   82   83 1   
    90   82   84 2   
    91   83   91 1   
    92   83   92 1   
    93   93   94 1   
    94   93  100 1   
    95   94   95 1   
    96   94   97 1   
    97   94  101 1   
    98   95   96 2   
    99   95  109 1   
   100   97   98 1   
   101   97   99 1   
   102   97  102 1   
   103   98  103 1   
   104   98  104 1   
   105   98  105 1   
   106   99  106 1   
   107   99  107 1   
   108   99  108 1   
   109  109  110 1   
   110  109  117 1   
   111  110  111 1   
   112  110  113 1   
   113  110  118 1   
   114  111  112 2   
   115  111  123 1   
   116  113  114 1   
   117  113  119 1   
   118  113  120 1   
   119  114  115 1   
   120  114  116 2   
   121  115  121 1   
   122  115  122 1   
   123  123  124 1   
   124  123  135 1   
   125  124  125 1   
   126  124  127 1   
   127  124  136 1   
   128  125  126 2   
   129  125  144 1   
   130  127  128 1   
   131  127  137 1   
   132  127  138 1   
   133  128  129 ar  
   134  128  130 ar  
   135  129  131 ar  
   136  129  139 1   
   137  130  132 ar  
   138  130  140 1   
   139  131  133 ar  
   140  131  141 1   
   141  132  133 ar  
   142  132  142 1   
   143  133  134 1   
   144  134  143 1   
   145  144  145 1   
   146  144  153 1   
   147  145  146 1   
   148  145  148 1   
   149  145  154 1   
   150  146  147 2   
   151  146  159 1   
   152  148  149 1   
   153  148  155 1   
   154  148  156 1   
   155  149  150 1   
   156  149  157 1   
   157  149  158 1   
   158  150  151 1   
   159  150  152 1   
   160  159  160 1   
   161  159  168 1   
   162  160  161 1   
   163  160  163 1   
   164  160  169 1   
   165  161  162 2   
   166  161  174 1   
   167  163  164 1   
   168  163  170 1   
   169  163  171 1   
   170  164  165 1   
   171  164  172 1   
   172  164  173 1   
   173  165  166 1   
   174  165  167 1   
   175  174  175 1   
   176  174  179 1   
   177  175  176 1   
   178  175  177 1   
   179  175  178 1   
   180  181  182 1   
   181  181  183 1   
   182  184  185 1   
   183  184  186 1   
   184  187  188 1   
   185  187  189 1   
@<TRIPOS>SUBSTRUCTURE
     1 MOL         1 TEMP              0 ****  ****    0 ROOT
