@<TRIPOS>MOLECULE
MOL
  189   185     1     0     0
SMALL
resp


@<TRIPOS>ATOM
      1 C1         -0.0700    3.9240    6.0160 c3        1 MOL     -0.420126
      2 C2         -0.7360    3.4480    4.6980 c         1 MOL      0.727348
      3 O1         -0.8990    2.2250    4.5470 o         1 MOL     -0.616042
      4 H1          0.3840    4.9030    5.8600 hc        1 MOL      0.102942
      5 H2         -0.8230    3.9930    6.8000 hc        1 MOL      0.102942
      6 H3          0.7000    3.2110    6.3120 hc        1 MOL      0.102942
      7 N1         -0.9720    4.3210    3.7520 n         1 MOL     -0.562308
      8 C3         -1.6860    3.9900    2.4960 c3        1 MOL      0.095023
      9 C4         -1.6200    5.1120    1.4920 c         1 MOL      0.505914
     10 O2         -1.7880    6.2450    1.8910 o         1 MOL     -0.582066
     11 C5         -3.1200    3.8300    2.8280 c3        1 MOL     -0.277105
     12 C6         -3.9370    3.3480    1.5490 c         1 MOL      0.654186
     13 O3         -5.1040    3.7450    1.4220 o         1 MOL     -0.649334
     14 O4         -3.3760    2.5330    0.7590 o         1 MOL     -0.649334
     15 H4         -0.7460    5.2740    4.0060 hn        1 MOL      0.315088
     16 H5         -1.2630    3.1450    1.9480 h1        1 MOL      0.101748
     17 H6         -3.4870    4.8240    3.0970 hc        1 MOL      0.072678
     18 H7         -3.3680    3.1780    3.6700 hc        1 MOL      0.072678
     19 N2         -1.3820    4.7980    0.2050 n         1 MOL      0.014568
     20 C7         -1.5930    5.7010   -0.9570 c3        1 MOL     -0.041865
     21 C8         -2.6650    5.2430   -1.9460 c         1 MOL      0.374669
     22 O5         -3.2850    6.1090   -2.6310 o         1 MOL     -0.588278
     23 C9         -0.1720    5.8720   -1.5960 c3        1 MOL      0.012606
     24 C10         0.3430    4.5420   -2.1360 c3        1 MOL      0.278775
     25 C11         0.8660    6.4270   -0.5960 c3        1 MOL     -0.199535
     26 C12         1.5940    4.7030   -2.9750 c3        1 MOL     -0.488828
     27 H8         -1.1620    3.8400   -0.0170 hn        1 MOL     -0.117801
     28 H9         -1.9590    6.6820   -0.6610 h1        1 MOL      0.081749
     29 H10        -0.2600    6.5220   -2.4630 hc        1 MOL      0.003179
     30 H11        -0.3310    4.0480   -2.8310 hc        1 MOL     -0.019956
     31 H12         0.5140    3.8980   -1.2720 hc        1 MOL     -0.019956
     32 H13         1.7680    6.6630   -1.1720 hc        1 MOL      0.043212
     33 H14         0.5050    7.3250   -0.0920 hc        1 MOL      0.043212
     34 H15         1.1830    5.7710    0.2120 hc        1 MOL      0.043212
     35 H16         2.4400    4.8490   -2.3080 hc        1 MOL      0.113765
     36 H17         1.8080    3.7750   -3.5050 hc        1 MOL      0.113765
     37 H18         1.3370    5.5240   -3.6380 hc        1 MOL      0.113765
     38 N3         -3.0310    3.9890   -2.0210 n         1 MOL     -0.067468
     39 C13        -3.7310    3.4520   -3.1710 c3        1 MOL      0.005465
     40 C14        -5.1230    2.9800   -2.8700 c         1 MOL      0.392323
     41 O6         -5.8430    2.7100   -3.8360 o         1 MOL     -0.568180
     42 C15        -2.9450    2.3110   -3.8490 c3        1 MOL     -0.361890
     43 C16        -2.5120    1.1470   -2.9400 c         1 MOL      0.764104
     44 O7         -3.1170    0.9790   -1.8270 o         1 MOL     -0.705933
     45 O8         -1.5780    0.3480   -3.1900 o         1 MOL     -0.705933
     46 H19        -2.5730    3.2830   -1.4530 hn        1 MOL      0.210609
     47 H20        -3.9840    4.1920   -3.9330 h1        1 MOL      0.114340
     48 H21        -2.0650    2.8450   -4.2100 hc        1 MOL      0.094617
     49 H22        -3.4380    1.8130   -4.6880 hc        1 MOL      0.094617
     50 N4         -5.5330    2.9070   -1.5900 n         1 MOL     -0.175551
     51 C17        -6.8730    2.4440   -1.1230 c3        1 MOL     -0.175298
     52 C18        -7.2060    1.0150   -1.5450 c         1 MOL      0.437994
     53 O9         -8.4010    0.6330   -1.5220 o         1 MOL     -0.603920
     54 H23        -4.8660    3.1870   -0.8810 hn        1 MOL      0.107291
     55 H24        -7.6150    3.1820   -1.4250 h1        1 MOL      0.120825
     56 H25        -6.8650    2.5480   -0.0350 h1        1 MOL      0.120825
     57 N5         -6.2670    0.1320   -1.9780 n         1 MOL     -0.190808
     58 C19        -6.5170   -1.2550   -2.5370 c3        1 MOL     -0.036820
     59 C20        -7.1790   -2.3120   -1.5550 c         1 MOL      0.481568
     60 O10        -7.7070   -3.3390   -1.9520 o         1 MOL     -0.532965
     61 C21        -5.3780   -1.8760   -3.2710 c3        1 MOL     -0.355129
     62 C22        -4.0690   -2.0560   -2.4780 c         1 MOL      0.783347
     63 O11        -4.1000   -1.7450   -1.2200 o         1 MOL     -0.695817
     64 O12        -3.0900   -2.6580   -3.0560 o         1 MOL     -0.695817
     65 H26        -5.3240    0.4920   -1.9740 hn        1 MOL      0.286902
     66 H27        -7.2880   -1.0660   -3.2760 h1        1 MOL      0.101600
     67 H28        -5.1380   -1.1250   -4.0350 hc        1 MOL      0.108160
     68 H29        -5.5800   -2.8500   -3.7110 hc        1 MOL      0.108160
     69 N6         -6.9600   -2.1340   -0.2140 n         1 MOL     -0.253996
     70 C23        -7.3290   -3.0630    0.8260 c3        1 MOL      0.070043
     71 C24        -6.2470   -3.9940    1.3730 c         1 MOL      0.453608
     72 O13        -6.5630   -5.0480    1.9600 o         1 MOL     -0.575387
     73 H30        -6.2400   -1.4670    0.0290 hn        1 MOL      0.177174
     74 H31        -8.1620   -3.6710    0.4670 h1        1 MOL      0.021674
     75 H32        -7.8160   -2.5800    1.6660 h1        1 MOL      0.021674
     76 N7         -4.9920   -3.7220    1.0900 n         1 MOL     -0.236760
     77 C25        -3.8130   -4.4900    1.5420 c3        1 MOL     -0.036672
     78 C26        -2.6860   -3.5310    1.7760 c         1 MOL      0.700256
     79 O14        -2.9030   -2.3440    1.6190 o         1 MOL     -0.712410
     80 C27        -3.4160   -5.4830    0.5180 c3        1 MOL     -0.192423
     81 C28        -3.2510   -5.0670   -0.9730 c3        1 MOL      0.004320
     82 C29        -3.1580   -6.1900   -1.9450 c         1 MOL      0.611499
     83 N8         -2.3480   -6.0710   -3.0030 n         1 MOL     -0.772760
     84 O15        -3.6550   -7.3010   -1.7400 o         1 MOL     -0.581311
     85 H33        -4.7090   -2.9840    0.4630 hn        1 MOL      0.227519
     86 H34        -3.9850   -4.8730    2.5480 h1        1 MOL      0.064073
     87 H35        -4.1460   -6.3030    0.4780 hc        1 MOL      0.053340
     88 H36        -2.4940   -5.9270    0.9150 hc        1 MOL      0.053340
     89 H37        -2.3900   -4.3960   -1.0180 hc        1 MOL      0.046880
     90 H38        -4.1470   -4.4560   -1.1140 hc        1 MOL      0.046880
     91 H39        -1.7410   -5.2670   -3.0610 hn        1 MOL      0.355961
     92 H40        -2.2900   -6.8550   -3.6470 hn        1 MOL      0.355961
     93 N9         -1.4780   -3.9570    2.3140 n         1 MOL     -0.684494
     94 C30        -0.3840   -3.0170    2.5170 c3        1 MOL      0.023717
     95 C31         0.9100   -3.4060    1.6740 c         1 MOL      0.493744
     96 O16         1.3910   -4.5330    1.6890 o         1 MOL     -0.566123
     97 C32        -0.1760   -2.8090    4.0290 c3        1 MOL      0.393015
     98 C33         0.2130   -4.0240    4.8280 c3        1 MOL     -0.360882
     99 C34         0.8770   -1.7090    4.3570 c3        1 MOL     -0.360882
    100 H41        -1.2680   -4.9290    2.4910 hn        1 MOL      0.362141
    101 H42        -0.6580   -2.1000    1.9920 h1        1 MOL      0.326658
    102 H43        -1.1340   -2.4210    4.3750 hc        1 MOL     -0.072312
    103 H44         0.1600   -3.8820    5.9070 hc        1 MOL      0.067533
    104 H45        -0.4720   -4.8080    4.5340 hc        1 MOL      0.067533
    105 H46         1.1690   -4.4020    4.4730 hc        1 MOL      0.067533
    106 H47         0.7740   -1.5750    5.4290 hc        1 MOL      0.067533
    107 H48         1.8360   -2.0290    3.9360 hc        1 MOL      0.067533
    108 H49         0.5610   -0.8120    3.8120 hc        1 MOL      0.067533
    109 N10         1.3600   -2.3960    0.9530 n         1 MOL     -0.198237
    110 C35         2.4980   -2.5100   -0.0060 c3        1 MOL      0.038945
    111 C36         3.8540   -2.3770    0.6610 c         1 MOL      0.160663
    112 O17         3.9040   -1.8980    1.8130 o         1 MOL     -0.233975
    113 C37         2.2810   -1.4520   -1.1070 c3        1 MOL     -0.082135
    114 C38         3.3400   -1.3490   -2.0880 c         1 MOL      0.496031
    115 N11         3.3080   -2.1470   -3.1150 n         1 MOL     -0.621088
    116 O18         4.2900   -0.5380   -1.9480 o         1 MOL     -0.442905
    117 H50         0.8600   -1.5330    0.7870 hn        1 MOL     -0.036937
    118 H51         2.4500   -3.4870   -0.4750 h1        1 MOL      0.054968
    119 H52         2.0600   -0.5220   -0.5840 hc        1 MOL      0.098995
    120 H53         1.4240   -1.7750   -1.6940 hc        1 MOL      0.098995
    121 H54         2.5870   -2.8540   -3.0770 hn        1 MOL      0.318539
    122 H55         4.0800   -2.0220   -3.7490 hn        1 MOL      0.318539
    123 N12         4.9700   -2.7380    0.0150 n         1 MOL     -0.088281
    124 C39         6.2920   -2.7960    0.5750 c3        1 MOL      0.023030
    125 C40         6.8090   -1.3060    0.8240 c         1 MOL      0.481038
    126 O19         7.5020   -1.0840    1.7900 o         1 MOL     -0.585647
    127 C41         7.1270   -3.5530   -0.4510 c3        1 MOL      0.058983
    128 C42         7.5950   -2.8670   -1.6990 ca        1 MOL      0.127154
    129 C43         8.7950   -2.1230   -1.6810 ca        1 MOL     -0.240714
    130 C44         6.7490   -2.7190   -2.8490 ca        1 MOL     -0.240714
    131 C45         9.3080   -1.5280   -2.8380 ca        1 MOL     -0.300754
    132 C46         7.3460   -2.2550   -4.0440 ca        1 MOL     -0.300754
    133 C47         8.6030   -1.6350   -4.0590 ca        1 MOL      0.324735
    134 O20         9.0460   -1.0390   -5.2100 oh        1 MOL     -0.428278
    135 H56         4.9350   -2.9470   -0.9790 hn        1 MOL      0.080163
    136 H57         6.2700   -3.2840    1.5550 h1        1 MOL      0.073718
    137 H58         6.5860   -4.4200   -0.8390 hc        1 MOL     -0.030278
    138 H59         8.0350   -3.9040    0.0290 hc        1 MOL     -0.030278
    139 H60         9.3980   -2.2330   -0.7870 ha        1 MOL      0.172865
    140 H61         5.7440   -3.1150   -2.8550 ha        1 MOL      0.172865
    141 H62        10.3010   -1.0890   -2.8190 ha        1 MOL      0.174749
    142 H63         6.7350   -2.3130   -4.9380 ha        1 MOL      0.174749
    143 H64         8.4910   -1.3700   -5.9140 ho        1 MOL      0.331418
    144 N13         6.2820   -0.3580    0.1170 n         1 MOL     -0.168167
    145 C48         6.5270    1.0730    0.3720 c3        1 MOL     -0.040312
    146 C49         5.5090    1.7380    1.3800 c         1 MOL      0.305500
    147 O21         5.6540    2.8950    1.8410 o         1 MOL     -0.531083
    148 C50         6.6010    1.9050   -0.8750 c3        1 MOL     -0.261406
    149 C51         7.8960    1.4520   -1.5300 c3        1 MOL     -0.153458
    150 C52         8.2080    2.4970   -2.6050 c         1 MOL      0.762458
    151 O22         9.2090    3.2410   -2.4210 o         1 MOL     -0.763347
    152 O23         7.5140    2.5410   -3.6220 o         1 MOL     -0.763347
    153 H65         5.6400   -0.5920   -0.6210 hn        1 MOL      0.102836
    154 H66         7.4160    1.1990    0.9790 h1        1 MOL      0.123441
    155 H67         6.5230    2.9730   -0.6590 hc        1 MOL      0.134237
    156 H68         5.7940    1.6090   -1.5460 hc        1 MOL      0.134237
    157 H69         7.9310    0.4940   -2.0290 hc        1 MOL      0.057397
    158 H70         8.6610    1.5260   -0.7550 hc        1 MOL      0.057397
    159 N14         4.4170    1.0700    1.7600 n         1 MOL     -0.050814
    160 C53         3.5740    1.4690    2.7990 c3        1 MOL      0.017826
    161 C54         3.7850    0.7520    4.1420 c         1 MOL      0.415531
    162 O24         3.7040    1.3980    5.1580 o         1 MOL     -0.573640
    163 C55         2.1080    1.1040    2.3820 c3        1 MOL      0.022310
    164 C56         1.5680    1.7680    1.1820 c3        1 MOL     -0.093730
    165 C57         0.2330    1.1830    0.6710 c         1 MOL      0.671017
    166 O25        -0.5600    1.8880   -0.0220 o         1 MOL     -0.673738
    167 O26        -0.1590    0.0460    1.0440 o         1 MOL     -0.673738
    168 H71         4.2470    0.1290    1.4250 hn        1 MOL      0.030106
    169 H72         3.5620    2.5270    3.0600 h1        1 MOL      0.072520
    170 H73         1.4410    1.2690    3.2330 hc        1 MOL      0.036442
    171 H74         1.9780    0.0380    2.1950 hc        1 MOL      0.036442
    172 H75         2.3710    1.5970    0.4530 hc        1 MOL      0.039076
    173 H76         1.5240    2.8340    1.3880 hc        1 MOL      0.039076
    174 N15         4.2280   -0.4820    4.2320 n         1 MOL     -0.031032
    175 C58         4.6680   -1.2750    5.3780 c3        1 MOL     -0.123342
    176 H77         4.3580   -2.3120    5.2420 h1        1 MOL      0.057587
    177 H78         5.7540   -1.2290    5.4570 h1        1 MOL      0.057587
    178 H79         4.2190   -0.8790    6.2900 h1        1 MOL      0.057587
    179 H80         4.1810   -0.9920    3.3580 hn        1 MOL     -0.000197
    180 Ca1        -2.6730    0.1030    0.4270 Ca        1 MOL      1.796085
    181 O27        -2.4520    0.2810    3.1360 oh        1 MOL     -0.924546
    182 H81        -2.8020   -0.4850    3.5900 ho        1 MOL      0.424536
    183 H82        -2.0570    0.8140    3.8320 ho        1 MOL      0.424536
    184 O28        -1.1670   -1.3500   -1.1880 oh        1 MOL     -0.924546
    185 H83        -1.8440   -1.8470   -1.6350 ho        1 MOL      0.424536
    186 H84        -0.8780   -0.6980   -1.8200 ho        1 MOL      0.424536
    187 O29        -5.3230    0.3990    1.0910 oh        1 MOL     -0.924546
    188 H85        -5.6280    1.2470    1.3940 ho        1 MOL      0.424536
    189 H86        -5.5200   -0.1950    1.8080 ho        1 MOL      0.424536
@<TRIPOS>BOND
     1    1    2 1   
     2    1    4 1   
     3    1    5 1   
     4    1    6 1   
     5    2    3 2   
     6    2    7 1   
     7    7    8 1   
     8    7   15 1   
     9    8    9 1   
    10    8   11 1   
    11    8   16 1   
    12    9   10 2   
    13    9   19 1   
    14   11   12 1   
    15   11   17 1   
    16   11   18 1   
    17   12   13 1   
    18   12   14 1   
    19   19   20 1   
    20   19   27 1   
    21   20   21 1   
    22   20   23 1   
    23   20   28 1   
    24   21   22 2   
    25   21   38 1   
    26   23   24 1   
    27   23   25 1   
    28   23   29 1   
    29   24   26 1   
    30   24   30 1   
    31   24   31 1   
    32   25   32 1   
    33   25   33 1   
    34   25   34 1   
    35   26   35 1   
    36   26   36 1   
    37   26   37 1   
    38   38   39 1   
    39   38   46 1   
    40   39   40 1   
    41   39   42 1   
    42   39   47 1   
    43   40   41 2   
    44   40   50 1   
    45   42   43 1   
    46   42   48 1   
    47   42   49 1   
    48   43   44 1   
    49   43   45 1   
    50   50   51 1   
    51   50   54 1   
    52   51   52 1   
    53   51   55 1   
    54   51   56 1   
    55   52   53 2   
    56   52   57 1   
    57   57   58 1   
    58   57   65 1   
    59   58   59 1   
    60   58   61 1   
    61   58   66 1   
    62   59   60 2   
    63   59   69 1   
    64   61   62 1   
    65   61   67 1   
    66   61   68 1   
    67   62   63 1   
    68   62   64 1   
    69   69   70 1   
    70   69   73 1   
    71   70   71 1   
    72   70   74 1   
    73   70   75 1   
    74   71   72 2   
    75   71   76 1   
    76   76   77 1   
    77   76   85 1   
    78   77   78 1   
    79   77   80 1   
    80   77   86 1   
    81   78   79 2   
    82   78   93 1   
    83   80   81 1   
    84   80   87 1   
    85   80   88 1   
    86   81   82 1   
    87   81   89 1   
    88   81   90 1   
    89   82   83 1   
    90   82   84 2   
    91   83   91 1   
    92   83   92 1   
    93   93   94 1   
    94   93  100 1   
    95   94   95 1   
    96   94   97 1   
    97   94  101 1   
    98   95   96 2   
    99   95  109 1   
   100   97   98 1   
   101   97   99 1   
   102   97  102 1   
   103   98  103 1   
   104   98  104 1   
   105   98  105 1   
   106   99  106 1   
   107   99  107 1   
   108   99  108 1   
   109  109  110 1   
   110  109  117 1   
   111  110  111 1   
   112  110  113 1   
   113  110  118 1   
   114  111  112 2   
   115  111  123 1   
   116  113  114 1   
   117  113  119 1   
   118  113  120 1   
   119  114  115 1   
   120  114  116 2   
   121  115  121 1   
   122  115  122 1   
   123  123  124 1   
   124  123  135 1   
   125  124  125 1   
   126  124  127 1   
   127  124  136 1   
   128  125  126 2   
   129  125  144 1   
   130  127  128 1   
   131  127  137 1   
   132  127  138 1   
   133  128  129 ar  
   134  128  130 ar  
   135  129  131 ar  
   136  129  139 1   
   137  130  132 ar  
   138  130  140 1   
   139  131  133 ar  
   140  131  141 1   
   141  132  133 ar  
   142  132  142 1   
   143  133  134 1   
   144  134  143 1   
   145  144  145 1   
   146  144  153 1   
   147  145  146 1   
   148  145  148 1   
   149  145  154 1   
   150  146  147 2   
   151  146  159 1   
   152  148  149 1   
   153  148  155 1   
   154  148  156 1   
   155  149  150 1   
   156  149  157 1   
   157  149  158 1   
   158  150  151 1   
   159  150  152 1   
   160  159  160 1   
   161  159  168 1   
   162  160  161 1   
   163  160  163 1   
   164  160  169 1   
   165  161  162 2   
   166  161  174 1   
   167  163  164 1   
   168  163  170 1   
   169  163  171 1   
   170  164  165 1   
   171  164  172 1   
   172  164  173 1   
   173  165  166 1   
   174  165  167 1   
   175  174  175 1   
   176  174  179 1   
   177  175  176 1   
   178  175  177 1   
   179  175  178 1   
   180  181  182 1   
   181  181  183 1   
   182  184  185 1   
   183  184  186 1   
   184  187  188 1   
   185  187  189 1   
@<TRIPOS>SUBSTRUCTURE
     1 MOL         1 TEMP              0 ****  ****    0 ROOT
