@<TRIPOS>MOLECULE
MOL
  189   185     1     0     0
SMALL
resp


@<TRIPOS>ATOM
      1 C1         -0.2140   -4.9060    5.3410 c3        1 MOL     -0.470131
      2 C2          0.5530   -4.2330    4.1720 c         1 MOL      0.731287
      3 O1          0.6920   -2.9930    4.2030 o         1 MOL     -0.619717
      4 H1         -1.2370   -5.1180    5.0290 hc        1 MOL      0.119106
      5 H2          0.2820   -5.8370    5.6140 hc        1 MOL      0.119106
      6 H3         -0.2290   -4.2360    6.2010 hc        1 MOL      0.119106
      7 N1          1.0820   -5.0110    3.2950 n         1 MOL     -0.604476
      8 C3          1.7300   -4.4100    2.1010 c3        1 MOL      0.325450
      9 C4          1.4340   -5.3350    0.8740 c         1 MOL      0.226653
     10 O2          1.4670   -6.5810    0.9460 o         1 MOL     -0.581670
     11 C5          3.1900   -4.3840    2.3310 c3        1 MOL     -0.211643
     12 C6          3.9000   -3.4950    1.3170 c         1 MOL      0.779033
     13 O3          5.1110   -3.3280    1.5250 o         1 MOL     -0.734998
     14 O4          3.4210   -2.8440    0.4300 o         1 MOL     -0.734998
     15 H4          1.1820   -5.9940    3.4590 hn        1 MOL      0.328083
     16 H5          1.2420   -3.4670    1.8750 h1        1 MOL     -0.043828
     17 H6          3.6360   -5.3700    2.3590 hc        1 MOL      0.047834
     18 H7          3.4470   -3.9180    3.2830 hc        1 MOL      0.047834
     19 N2          1.2420   -4.7200   -0.2030 n         1 MOL     -0.003907
     20 C7          0.7740   -5.2960   -1.4920 c3        1 MOL     -0.256497
     21 C8          1.7900   -4.9990   -2.6580 c         1 MOL      0.548022
     22 O5          1.7520   -5.6190   -3.7140 o         1 MOL     -0.562368
     23 C9         -0.6990   -4.7390   -1.6440 c3        1 MOL      0.495488
     24 C10        -1.5820   -5.4020   -0.5960 c3        1 MOL     -0.197278
     25 C11        -1.1910   -5.0020   -3.0680 c3        1 MOL     -0.232757
     26 C12        -3.0950   -5.0000   -0.6490 c3        1 MOL      0.008125
     27 H8          1.2380   -3.7140   -0.1400 hn        1 MOL      0.407262
     28 H9          0.6340   -6.3780   -1.4950 h1        1 MOL      0.101475
     29 H10        -0.7310   -3.6560   -1.5230 hc        1 MOL     -0.101281
     30 H11        -1.3110   -5.1350    0.4210 hc        1 MOL      0.015356
     31 H12        -1.5050   -6.4800   -0.7420 hc        1 MOL      0.015356
     32 H13        -2.1410   -4.5070   -3.2820 hc        1 MOL      0.035855
     33 H14        -0.5040   -4.5140   -3.7580 hc        1 MOL      0.035855
     34 H15        -1.2230   -6.0650   -3.2810 hc        1 MOL      0.035855
     35 H16        -3.0930   -3.9160   -0.7070 hc        1 MOL      0.006942
     36 H17        -3.4540   -5.3870   -1.6070 hc        1 MOL      0.006942
     37 H18        -3.7440   -5.3160    0.1580 hc        1 MOL      0.006942
     38 N3          2.7150   -4.0000   -2.4730 n         1 MOL     -0.310069
     39 C13         3.5970   -3.5620   -3.5690 c3        1 MOL     -0.014411
     40 C14         4.9560   -3.0430   -3.1930 c         1 MOL      0.491508
     41 O6          5.7870   -2.8450   -4.0800 o         1 MOL     -0.563460
     42 C15         2.7810   -2.3830   -4.1580 c3        1 MOL     -0.164661
     43 C16         2.4830   -1.2080   -3.2050 c         1 MOL      0.743614
     44 O7          3.0740   -0.9710   -2.0900 o         1 MOL     -0.680988
     45 O8          1.6500   -0.4510   -3.6770 o         1 MOL     -0.680988
     46 H19         2.6750   -3.4480   -1.6320 hn        1 MOL     -0.055530
     47 H20         3.6850   -4.3720   -4.2880 h1        1 MOL      0.104665
     48 H21         1.8740   -2.7320   -4.6640 hc        1 MOL      0.056412
     49 H22         3.3530   -1.9650   -4.9830 hc        1 MOL      0.056412
     50 N4          5.2150   -2.9220   -1.8630 n         1 MOL     -0.356006
     51 C17         6.6370   -2.6590   -1.4450 c3        1 MOL     -0.124723
     52 C18         7.0640   -1.1820   -1.6410 c         1 MOL      0.572016
     53 O9          8.2140   -0.9980   -1.5500 o         1 MOL     -0.615980
     54 H23         4.5530   -3.1200   -1.1350 hn        1 MOL      0.302939
     55 H24         7.4230   -3.2110   -1.9550 h1        1 MOL      0.087592
     56 H25         6.7870   -2.8810   -0.3830 h1        1 MOL      0.087592
     57 N5          6.1610   -0.2010   -1.8070 n         1 MOL     -0.183162
     58 C19         6.7010    1.1430   -2.1640 c3        1 MOL     -0.111852
     59 C20         7.1790    2.0570   -1.0600 c         1 MOL      0.502931
     60 O10         7.5160    3.2060   -1.3720 o         1 MOL     -0.559937
     61 C21         5.5530    1.8520   -2.9260 c3        1 MOL     -0.213839
     62 C22         4.2330    2.0340   -2.0980 c         1 MOL      0.843177
     63 O11         4.0170    1.4380   -1.0020 o         1 MOL     -0.723298
     64 O12         3.3270    2.7220   -2.6110 o         1 MOL     -0.723298
     65 H26         5.1640   -0.3550   -1.9100 hn        1 MOL      0.177683
     66 H27         7.5070    1.0650   -2.8960 h1        1 MOL      0.110642
     67 H28         5.3720    1.2180   -3.7810 hc        1 MOL      0.054855
     68 H29         5.7470    2.8510   -3.3120 hc        1 MOL      0.054855
     69 N6          7.0940    1.6140    0.2040 n         1 MOL     -0.393656
     70 C23         7.4530    2.5550    1.3030 c3        1 MOL     -0.059393
     71 C24         6.2810    3.3630    1.9090 c         1 MOL      0.469364
     72 O13         6.5260    4.3040    2.6390 o         1 MOL     -0.580073
     73 H30         6.7170    0.6850    0.2780 hn        1 MOL      0.291345
     74 H31         8.1930    3.2760    0.9450 h1        1 MOL      0.082885
     75 H32         7.8870    2.1230    2.1970 h1        1 MOL      0.082885
     76 N7          5.0440    3.0870    1.4440 n         1 MOL     -0.198261
     77 C25         3.8410    3.9090    1.8330 c3        1 MOL     -0.161256
     78 C26         2.6690    2.9220    2.0510 c         1 MOL      0.495085
     79 O14         2.7840    1.6560    2.0760 o         1 MOL     -0.558827
     80 C27         3.5390    4.8940    0.7230 c3        1 MOL      0.017313
     81 C28         4.6240    6.0150    0.5560 c3        1 MOL     -0.129900
     82 C29         4.3900    7.0420   -0.5650 c         1 MOL      0.520981
     83 N8          4.4040    6.5920   -1.8420 n         1 MOL     -0.712764
     84 O15         4.0550    8.2220   -0.3500 o         1 MOL     -0.564313
     85 H33         4.9720    2.2580    0.8760 hn        1 MOL      0.172718
     86 H34         4.0460    4.5100    2.7240 h1        1 MOL      0.107385
     87 H35         2.5720    5.3850    0.8680 hc        1 MOL      0.044720
     88 H36         3.5040    4.3050   -0.1930 hc        1 MOL      0.044720
     89 H37         5.5340    5.4960    0.2670 hc        1 MOL      0.070384
     90 H38         4.7100    6.6420    1.4430 hc        1 MOL      0.070384
     91 H39         4.5870    5.6170   -2.0260 hn        1 MOL      0.348234
     92 H40         4.3280    7.2920   -2.5570 hn        1 MOL      0.348234
     93 N9          1.4670    3.5440    2.3100 n         1 MOL     -0.282718
     94 C30         0.1710    2.9040    2.6040 c3        1 MOL      0.135623
     95 C31        -0.8560    3.3910    1.5620 c         1 MOL      0.158089
     96 O16        -0.9710    4.5710    1.2660 o         1 MOL     -0.520876
     97 C32        -0.2840    3.1250    4.0320 c3        1 MOL      0.337872
     98 C33        -1.4990    2.1930    4.3820 c3        1 MOL     -0.367027
     99 C34         0.7370    2.8310    5.1250 c3        1 MOL     -0.367027
    100 H41         1.4510    4.5420    2.3980 hn        1 MOL      0.207946
    101 H42         0.1880    1.8350    2.4380 h1        1 MOL      0.011521
    102 H43        -0.5980    4.1380    4.2750 hc        1 MOL     -0.045246
    103 H44        -1.7950    2.3380    5.4190 hc        1 MOL      0.078371
    104 H45        -2.3690    2.3340    3.7400 hc        1 MOL      0.078371
    105 H46        -1.2830    1.1290    4.2460 hc        1 MOL      0.078371
    106 H47         0.9860    1.7670    5.0890 hc        1 MOL      0.078371
    107 H48         1.6270    3.4110    4.8690 hc        1 MOL      0.078371
    108 H49         0.2300    3.0680    6.0570 hc        1 MOL      0.078371
    109 N10        -1.5920    2.4640    0.9780 n         1 MOL      0.022035
    110 C35        -2.7340    2.6140    0.0930 c3        1 MOL      0.281027
    111 C36        -4.1320    2.3580    0.7880 c         1 MOL      0.012566
    112 O17        -4.1770    1.7640    1.8910 o         1 MOL     -0.267146
    113 C37        -2.5590    1.7060   -1.1750 c3        1 MOL     -0.158999
    114 C38        -3.4780    1.8880   -2.3950 c         1 MOL      0.643418
    115 N11        -3.3230    2.8630   -3.2510 n         1 MOL     -0.737504
    116 O18        -4.4690    1.1520   -2.4400 o         1 MOL     -0.562097
    117 H50        -1.2340    1.5270    1.1310 hn        1 MOL      0.149395
    118 H51        -2.7570    3.6360   -0.2740 h1        1 MOL     -0.023435
    119 H52        -2.6980    0.6920   -0.8140 hc        1 MOL      0.049331
    120 H53        -1.5320    1.9280   -1.4380 hc        1 MOL      0.049331
    121 H54        -2.5310    3.4870   -3.1920 hn        1 MOL      0.342340
    122 H55        -4.1350    3.0690   -3.8040 hn        1 MOL      0.342340
    123 N12        -5.1500    2.8790    0.2520 n         1 MOL     -0.081668
    124 C39        -6.5390    2.5850    0.6220 c3        1 MOL      0.161304
    125 C40        -6.8990    1.1090    0.6720 c         1 MOL      0.338884
    126 O19        -7.5830    0.6650    1.6290 o         1 MOL     -0.533072
    127 C41        -7.4590    3.4570   -0.1820 c3        1 MOL     -0.333945
    128 C42        -7.2310    3.4030   -1.6870 ca        1 MOL      0.125044
    129 C43        -6.4800    4.3300   -2.3820 ca        1 MOL     -0.180442
    130 C44        -7.6590    2.2370   -2.3450 ca        1 MOL     -0.180442
    131 C45        -6.2270    4.1880   -3.7030 ca        1 MOL     -0.190372
    132 C46        -7.4030    2.0720   -3.6950 ca        1 MOL     -0.190372
    133 C47        -6.7420    3.0940   -4.4170 ca        1 MOL      0.248587
    134 O20        -6.5870    2.9480   -5.7810 oh        1 MOL     -0.417340
    135 H56        -4.9870    3.3860   -0.6100 hn        1 MOL      0.137886
    136 H57        -6.6990    2.9430    1.6330 h1        1 MOL      0.058254
    137 H58        -7.2940    4.4460    0.2260 hc        1 MOL      0.111977
    138 H59        -8.5140    3.1770   -0.1040 hc        1 MOL      0.111977
    139 H60        -6.2300    5.2410   -1.8630 ha        1 MOL      0.094647
    140 H61        -8.1760    1.5450   -1.6920 ha        1 MOL      0.094647
    141 H62        -5.7450    5.0060   -4.2140 ha        1 MOL      0.110812
    142 H63        -7.7130    1.1420   -4.1430 ha        1 MOL      0.110812
    143 H64        -6.2290    3.7820   -6.0890 ho        1 MOL      0.308330
    144 N13        -6.2550    0.2230   -0.1690 n         1 MOL     -0.090117
    145 C48        -6.3850   -1.2560   -0.0350 c3        1 MOL     -0.429811
    146 C49        -5.4920   -1.9080    1.0470 c         1 MOL      0.637389
    147 O21        -5.6250   -3.0550    1.3980 o         1 MOL     -0.556062
    148 C50        -6.1150   -1.7780   -1.4140 c3        1 MOL      0.261100
    149 C51        -7.2840   -1.4550   -2.3130 c3        1 MOL     -0.222192
    150 C52        -8.6100   -1.9800   -1.7400 c         1 MOL      0.692993
    151 O22        -8.6860   -3.0990   -1.2130 o         1 MOL     -0.723161
    152 O23        -9.6630   -1.3180   -1.9420 o         1 MOL     -0.723161
    153 H65        -5.6980    0.5990   -0.9240 hn        1 MOL      0.396424
    154 H66        -7.3650   -1.4600    0.4060 h1        1 MOL      0.228700
    155 H67        -5.9760   -2.8620   -1.3730 hc        1 MOL     -0.072186
    156 H68        -5.2230   -1.3230   -1.8440 hc        1 MOL     -0.072186
    157 H69        -7.0930   -1.8140   -3.3250 hc        1 MOL      0.053136
    158 H70        -7.3960   -0.3800   -2.3990 hc        1 MOL      0.053136
    159 N14        -4.5660   -1.1640    1.5940 n         1 MOL     -0.256859
    160 C53        -3.6370   -1.5470    2.6480 c3        1 MOL     -0.016248
    161 C54        -4.1370   -0.9910    4.0090 c         1 MOL      0.499250
    162 O24        -4.0030   -1.6810    4.9950 o         1 MOL     -0.584328
    163 C55        -2.2690   -1.1140    2.3400 c3        1 MOL      0.077368
    164 C56        -1.5550   -1.8120    1.1130 c3        1 MOL     -0.061427
    165 C57        -0.2140   -1.1710    0.6710 c         1 MOL      0.726003
    166 O25         0.5020   -1.7630   -0.1480 o         1 MOL     -0.745139
    167 O26         0.0940   -0.0640    1.0540 o         1 MOL     -0.745139
    168 H71        -4.5070   -0.1990    1.3010 hn        1 MOL     -0.039376
    169 H72        -3.6960   -2.6250    2.7610 h1        1 MOL      0.063309
    170 H73        -1.6540   -1.3370    3.2140 hc        1 MOL      0.015838
    171 H74        -2.2480   -0.0300    2.2100 hc        1 MOL      0.015838
    172 H75        -2.2590   -1.7380    0.2910 hc        1 MOL      0.027144
    173 H76        -1.3470   -2.8700    1.3030 hc        1 MOL      0.027144
    174 N15        -4.5550    0.2460    4.0830 n         1 MOL     -0.118742
    175 C58        -4.9780    1.0090    5.3380 c3        1 MOL     -0.251944
    176 H77        -5.7110    0.4220    5.8910 h1        1 MOL      0.094789
    177 H78        -4.1060    1.1860    5.9680 h1        1 MOL      0.094789
    178 H79        -5.4190    1.9640    5.0520 h1        1 MOL      0.094789
    179 H80        -4.3790    0.8390    3.2770 hn        1 MOL      0.078169
    180 Ca1         2.6170   -0.3500    0.2960 Ca        1 MOL      1.756726
    181 O27         2.6160   -1.2230    3.1110 oh        1 MOL     -0.884472
    182 O28         1.2900    1.4050   -1.4800 oh        1 MOL     -0.884472
    183 H81         3.0570   -0.8420    3.8710 ho        1 MOL      0.416777
    184 H82         1.2400    0.9010   -2.2960 ho        1 MOL      0.416777
    185 H83         1.9780   -1.8260    3.4810 ho        1 MOL      0.416777
    186 H84         1.9750    2.0470   -1.6430 ho        1 MOL      0.416777
    187 O29         5.2030   -0.4600    1.3660 oh        1 MOL     -0.884472
    188 H85         5.2770   -1.4120    1.4270 ho        1 MOL      0.416777
    189 H86         5.3050   -0.1510    2.2680 ho        1 MOL      0.416777
@<TRIPOS>BOND
     1    1    2 1   
     2    1    4 1   
     3    1    5 1   
     4    1    6 1   
     5    2    3 2   
     6    2    7 1   
     7    7    8 1   
     8    7   15 1   
     9    8    9 1   
    10    8   11 1   
    11    8   16 1   
    12    9   10 2   
    13    9   19 1   
    14   11   12 1   
    15   11   17 1   
    16   11   18 1   
    17   12   13 1   
    18   12   14 1   
    19   19   20 1   
    20   19   27 1   
    21   20   21 1   
    22   20   23 1   
    23   20   28 1   
    24   21   22 2   
    25   21   38 1   
    26   23   24 1   
    27   23   25 1   
    28   23   29 1   
    29   24   26 1   
    30   24   30 1   
    31   24   31 1   
    32   25   32 1   
    33   25   33 1   
    34   25   34 1   
    35   26   35 1   
    36   26   36 1   
    37   26   37 1   
    38   38   39 1   
    39   38   46 1   
    40   39   40 1   
    41   39   42 1   
    42   39   47 1   
    43   40   41 2   
    44   40   50 1   
    45   42   43 1   
    46   42   48 1   
    47   42   49 1   
    48   43   44 1   
    49   43   45 1   
    50   50   51 1   
    51   50   54 1   
    52   51   52 1   
    53   51   55 1   
    54   51   56 1   
    55   52   53 2   
    56   52   57 1   
    57   57   58 1   
    58   57   65 1   
    59   58   59 1   
    60   58   61 1   
    61   58   66 1   
    62   59   60 2   
    63   59   69 1   
    64   61   62 1   
    65   61   67 1   
    66   61   68 1   
    67   62   63 1   
    68   62   64 1   
    69   69   70 1   
    70   69   73 1   
    71   70   71 1   
    72   70   74 1   
    73   70   75 1   
    74   71   72 2   
    75   71   76 1   
    76   76   77 1   
    77   76   85 1   
    78   77   78 1   
    79   77   80 1   
    80   77   86 1   
    81   78   79 2   
    82   78   93 1   
    83   80   81 1   
    84   80   87 1   
    85   80   88 1   
    86   81   82 1   
    87   81   89 1   
    88   81   90 1   
    89   82   83 1   
    90   82   84 2   
    91   83   91 1   
    92   83   92 1   
    93   93   94 1   
    94   93  100 1   
    95   94   95 1   
    96   94   97 1   
    97   94  101 1   
    98   95   96 2   
    99   95  109 1   
   100   97   98 1   
   101   97   99 1   
   102   97  102 1   
   103   98  103 1   
   104   98  104 1   
   105   98  105 1   
   106   99  106 1   
   107   99  107 1   
   108   99  108 1   
   109  109  110 1   
   110  109  117 1   
   111  110  111 1   
   112  110  113 1   
   113  110  118 1   
   114  111  112 2   
   115  111  123 1   
   116  113  114 1   
   117  113  119 1   
   118  113  120 1   
   119  114  115 1   
   120  114  116 2   
   121  115  121 1   
   122  115  122 1   
   123  123  124 1   
   124  123  135 1   
   125  124  125 1   
   126  124  127 1   
   127  124  136 1   
   128  125  126 2   
   129  125  144 1   
   130  127  128 1   
   131  127  137 1   
   132  127  138 1   
   133  128  129 ar  
   134  128  130 ar  
   135  129  131 ar  
   136  129  139 1   
   137  130  132 ar  
   138  130  140 1   
   139  131  133 ar  
   140  131  141 1   
   141  132  133 ar  
   142  132  142 1   
   143  133  134 1   
   144  134  143 1   
   145  144  145 1   
   146  144  153 1   
   147  145  146 1   
   148  145  148 1   
   149  145  154 1   
   150  146  147 2   
   151  146  159 1   
   152  148  149 1   
   153  148  155 1   
   154  148  156 1   
   155  149  150 1   
   156  149  157 1   
   157  149  158 1   
   158  150  151 1   
   159  150  152 1   
   160  159  160 1   
   161  159  168 1   
   162  160  161 1   
   163  160  163 1   
   164  160  169 1   
   165  161  162 2   
   166  161  174 1   
   167  163  164 1   
   168  163  170 1   
   169  163  171 1   
   170  164  165 1   
   171  164  172 1   
   172  164  173 1   
   173  165  166 1   
   174  165  167 1   
   175  174  175 1   
   176  174  179 1   
   177  175  176 1   
   178  175  177 1   
   179  175  178 1   
   180  181  183 1   
   181  181  185 1   
   182  182  184 1   
   183  182  186 1   
   184  187  188 1   
   185  187  189 1   
@<TRIPOS>SUBSTRUCTURE
     1 MOL         1 TEMP              0 ****  ****    0 ROOT
