@<TRIPOS>MOLECULE
MOL
  179   176     1     0     0
SMALL
resp


@<TRIPOS>ATOM
      1 C1          2.4080    3.4870    4.4450 c3        1 MOL     -0.347378
      2 C2          1.7120    3.2900    3.0330 c         1 MOL      0.729351
      3 O1          2.3850    3.3410    2.0890 o         1 MOL     -0.544893
      4 H1          3.0610    4.3590    4.4080 hc        1 MOL      0.072854
      5 H2          1.6450    3.6370    5.2090 hc        1 MOL      0.072854
      6 H3          2.9970    2.6020    4.6870 hc        1 MOL      0.072854
      7 N1          0.4110    3.0770    3.0820 n         1 MOL     -0.659959
      8 C3         -0.5680    2.9310    1.9530 c3        1 MOL      0.271736
      9 C4         -1.1470    4.3420    1.5620 c         1 MOL      0.342102
     10 O2         -2.3000    4.6360    1.7720 o         1 MOL     -0.437751
     11 C5         -1.7130    1.9930    2.3150 c3        1 MOL     -0.173435
     12 C6         -2.6620    1.6200    1.1560 c         1 MOL      0.504454
     13 O3         -3.8790    1.3200    1.3760 o         1 MOL     -0.623287
     14 O4         -2.1680    1.5920   -0.0060 o         1 MOL     -0.623287
     15 H4         -0.0030    2.7920    3.9550 hn        1 MOL      0.325866
     16 H5         -0.0540    2.4620    1.1120 h1        1 MOL      0.009988
     17 H6         -2.3430    2.3430    3.1400 hc        1 MOL      0.058441
     18 H7         -1.2430    1.0710    2.6360 hc        1 MOL      0.058441
     19 N2         -0.3230    5.1890    0.9280 n         1 MOL     -0.351854
     20 C7         -0.7850    6.4210    0.2420 c3        1 MOL      0.016043
     21 C8         -1.6440    6.2840   -0.9840 c         1 MOL      0.348779
     22 O5         -2.3880    7.2090   -1.3600 o         1 MOL     -0.530205
     23 C9          0.4410    7.2030   -0.0150 c3        1 MOL      0.112185
     24 C10         1.4310    7.5470    1.1640 c3        1 MOL      0.098946
     25 C11         2.8460    7.9680    0.5190 c3        1 MOL     -0.078972
     26 C12         3.8950    8.4640    1.5850 c3        1 MOL     -0.073412
     27 N3          4.4850    7.3160    2.2840 n4        1 MOL     -0.336522
     28 H8          0.6040    4.8260    0.8160 hn        1 MOL      0.312529
     29 H9         -1.3270    7.0530    0.9470 h1        1 MOL      0.099764
     30 H10         0.2230    8.0950   -0.5950 hc        1 MOL     -0.021195
     31 H11         1.0620    6.5420   -0.6180 hc        1 MOL     -0.021195
     32 H12         1.6220    6.6190    1.7090 hc        1 MOL     -0.052409
     33 H13         0.9530    8.3170    1.7580 hc        1 MOL     -0.052409
     34 H14         2.7390    8.7800   -0.1870 hc        1 MOL      0.067235
     35 H15         3.3300    7.1390   -0.0060 hc        1 MOL      0.067235
     36 H16         3.3130    9.0240    2.3060 hx        1 MOL      0.125034
     37 H17         4.6550    9.1480    1.1850 hx        1 MOL      0.125034
     38 H18         5.1700    7.5900    2.9840 hn        1 MOL      0.326873
     39 H19         3.7270    6.8760    2.7730 hn        1 MOL      0.326873
     40 H20         4.9090    6.5990    1.7310 hn        1 MOL      0.326873
     41 N4         -1.5850    5.1930   -1.7000 n         1 MOL     -0.196291
     42 C13        -2.5260    4.8220   -2.8080 c3        1 MOL      0.002065
     43 C14        -3.9570    4.4700   -2.2980 c         1 MOL      0.425228
     44 O6         -4.9280    4.5220   -3.0280 o         1 MOL     -0.530151
     45 C15        -1.9490    3.7280   -3.7810 c3        1 MOL     -0.332706
     46 C16        -1.4360    2.4960   -3.0540 c         1 MOL      0.788046
     47 O7         -0.4330    2.6060   -2.2550 o         1 MOL     -0.742107
     48 O8         -1.9500    1.3770   -3.3450 o         1 MOL     -0.742107
     49 H21        -0.9120    4.4680   -1.4740 hn        1 MOL      0.196496
     50 H22        -2.6480    5.7400   -3.3880 h1        1 MOL      0.097557
     51 H23        -1.0930    4.2200   -4.2500 hc        1 MOL      0.100077
     52 H24        -2.6480    3.4830   -4.5840 hc        1 MOL      0.100077
     53 N5         -4.0550    4.0070   -1.0540 n         1 MOL      0.030978
     54 C17        -5.3720    4.0100   -0.3530 c3        1 MOL     -0.348842
     55 C18        -6.2450    2.7250   -0.5940 c         1 MOL      0.584127
     56 O9         -7.4610    2.7840   -0.4010 o         1 MOL     -0.584325
     57 H25        -3.2060    3.9140   -0.5100 hn        1 MOL      0.112374
     58 H26        -6.0330    4.7910   -0.7320 h1        1 MOL      0.141090
     59 H27        -5.1580    4.0450    0.7120 h1        1 MOL      0.141090
     60 N6         -5.6650    1.6010   -0.9590 n         1 MOL     -0.171681
     61 C19        -6.4010    0.3780   -1.3490 c3        1 MOL     -0.172492
     62 C20        -6.4830   -0.6670   -0.2300 c         1 MOL      0.412797
     63 O10        -7.0880   -1.6910   -0.4660 o         1 MOL     -0.486321
     64 C21        -5.6540   -0.3340   -2.6130 c3        1 MOL      0.017311
     65 C22        -4.4060   -1.0940   -2.3580 c         1 MOL      0.581551
     66 N7         -4.3080   -2.2610   -2.9360 n         1 MOL     -0.734393
     67 O11        -3.4270   -0.6830   -1.7050 o         1 MOL     -0.537264
     68 H28        -4.6670    1.6020   -1.0710 hn        1 MOL      0.120537
     69 H29        -7.4370    0.6350   -1.5810 h1        1 MOL      0.155317
     70 H30        -5.5200    0.3370   -3.4560 hc        1 MOL      0.025382
     71 H31        -6.3260   -1.1220   -2.9580 hc        1 MOL      0.025382
     72 H32        -5.0300   -2.4340   -3.6250 hn        1 MOL      0.350671
     73 H33        -3.5600   -2.8800   -2.6680 hn        1 MOL      0.350671
     74 N8         -6.0020   -0.3900    0.9420 n         1 MOL     -0.156537
     75 C23        -6.2090   -1.3360    2.1270 c3        1 MOL     -0.424980
     76 C24        -5.1710   -2.5030    2.3000 c         1 MOL      0.710407
     77 O12        -5.3070   -3.3780    3.1520 o         1 MOL     -0.574593
     78 H34        -5.4100    0.4080    1.1580 hn        1 MOL      0.253271
     79 H35        -7.1940   -1.8130    2.0550 h1        1 MOL      0.171846
     80 H36        -6.0890   -0.7130    3.0170 h1        1 MOL      0.171846
     81 N9         -4.0450   -2.4390    1.5260 n         1 MOL     -0.432731
     82 C25        -2.9660   -3.4280    1.4050 c3        1 MOL     -0.068624
     83 C26        -1.5600   -2.8000    1.3630 c         1 MOL      0.798773
     84 O13        -1.3210   -1.8930    0.5540 o         1 MOL     -0.644893
     85 C27        -3.1910   -4.2750    0.1160 c3        1 MOL     -0.130611
     86 C28        -4.4990   -5.0870    0.1610 ca        1 MOL      0.155593
     87 C29        -5.5050   -4.8080   -0.7830 ca        1 MOL     -0.319550
     88 C30        -4.5510   -6.0950    1.1090 ca        1 MOL     -0.319550
     89 C31        -6.6540   -5.5570   -0.7490 ca        1 MOL     -0.119852
     90 C32        -5.7580   -6.8120    1.2050 ca        1 MOL     -0.119852
     91 C33        -6.7620   -6.5050    0.2320 ca        1 MOL      0.289012
     92 O14        -7.9050   -7.1770    0.4020 oh        1 MOL     -0.522346
     93 H37        -3.8870   -1.5110    1.1640 hn        1 MOL      0.252617
     94 H38        -2.9140   -4.1660    2.2070 h1        1 MOL      0.068865
     95 H39        -2.3680   -4.9600   -0.0450 hc        1 MOL      0.058134
     96 H40        -3.1460   -3.5920   -0.7370 hc        1 MOL      0.058134
     97 H41        -5.4650   -3.9180   -1.3950 ha        1 MOL      0.188369
     98 H42        -3.7800   -6.2150    1.8540 ha        1 MOL      0.188369
     99 H43        -7.4780   -5.3630   -1.4120 ha        1 MOL      0.116804
    100 H44        -5.8050   -7.6610    1.8640 ha        1 MOL      0.116804
    101 H45        -8.0460   -7.5680    1.2730 ho        1 MOL      0.378755
    102 N10        -0.6410   -3.3240    2.2240 n         1 MOL     -0.640491
    103 C34         0.7880   -2.9500    2.2600 c3        1 MOL     -0.033604
    104 C35         1.6140   -4.1270    1.5170 c         1 MOL      0.623704
    105 O15         1.5080   -5.3020    1.8030 o         1 MOL     -0.563607
    106 C36         1.2050   -2.6860    3.6680 c3        1 MOL      0.075148
    107 C37         0.4360   -1.4030    4.0960 c3        1 MOL      0.025204
    108 C38         2.6970   -2.4950    3.8960 c3        1 MOL     -0.393646
    109 C39         0.6360   -0.6570    5.5040 c3        1 MOL     -0.419436
    110 H46        -0.9250   -4.0210    2.8980 hn        1 MOL      0.332279
    111 H47         0.9830   -2.0300    1.7030 h1        1 MOL      0.064968
    112 H48         0.8950   -3.4900    4.3420 hc        1 MOL      0.056504
    113 H49        -0.6560   -1.4650    4.0250 hc        1 MOL      0.059099
    114 H50         0.5970   -0.6200    3.3600 hc        1 MOL      0.059099
    115 H51         3.2280   -3.4300    3.7040 hc        1 MOL      0.110842
    116 H52         3.0380   -1.7440    3.1870 hc        1 MOL      0.110842
    117 H53         2.7990   -2.3870    4.9660 hc        1 MOL      0.110842
    118 H54         0.1170    0.2970    5.5670 hc        1 MOL      0.109288
    119 H55         0.4830   -1.3350    6.3460 hc        1 MOL      0.109288
    120 H56         1.7150   -0.5800    5.6790 hc        1 MOL      0.109288
    121 N11         2.3730   -3.7020    0.4740 n         1 MOL     -0.297164
    122 C40         3.2580   -4.4480   -0.4470 c3        1 MOL     -0.011931
    123 C41         4.7210   -4.0380   -0.3250 c         1 MOL      0.575988
    124 O16         5.0650   -3.0270    0.2290 o         1 MOL     -0.551740
    125 C42         2.7480   -4.3870   -1.8890 c3        1 MOL     -0.064912
    126 O17         2.7130   -3.0500   -2.3650 oh        1 MOL     -0.580988
    127 H57         2.1320   -2.7510    0.2280 hn        1 MOL      0.172475
    128 H58         3.3060   -5.5120   -0.1970 h1        1 MOL      0.034856
    129 H59         1.7470   -4.8220   -1.9370 h1        1 MOL      0.099393
    130 H60         3.4910   -4.9500   -2.4660 h1        1 MOL      0.099393
    131 H61         2.1090   -2.5800   -1.7740 ho        1 MOL      0.343694
    132 N12         5.6280   -4.8450   -0.9110 n         1 MOL     -0.417234
    133 C43         7.0410   -4.6440   -0.6710 c3        1 MOL      0.123885
    134 C44         7.5830   -3.2370   -1.0750 c         1 MOL      0.571363
    135 O18         8.2740   -2.5830   -0.2970 o         1 MOL     -0.546767
    136 C45         7.8050   -5.6520   -1.3970 c3        1 MOL     -0.380925
    137 H62         5.3020   -5.6890   -1.3620 hn        1 MOL      0.276058
    138 H63         7.1870   -4.7220    0.4110 h1        1 MOL      0.065961
    139 H64         8.8540   -5.4440   -1.1640 hc        1 MOL      0.108985
    140 H65         7.4740   -6.6490   -1.1030 hc        1 MOL      0.108985
    141 H66         7.6890   -5.4260   -2.4580 hc        1 MOL      0.108985
    142 N13         7.2400   -2.7680   -2.2840 n         1 MOL     -0.400340
    143 C46         7.8510   -1.4800   -2.7580 c3        1 MOL      0.096589
    144 C47         7.6040   -0.2210   -1.8950 c         1 MOL      0.381022
    145 O19         8.5080    0.6180   -1.7660 o         1 MOL     -0.509181
    146 C48         7.2720   -1.3510   -4.1840 c3        1 MOL     -0.273557
    147 H67         6.5430   -3.1080   -2.9290 hn        1 MOL      0.265587
    148 H68         8.9240   -1.6460   -2.7720 h1        1 MOL      0.079178
    149 H69         7.4770   -2.2540   -4.7580 hc        1 MOL      0.077634
    150 H70         6.2360   -1.1200   -3.9580 hc        1 MOL      0.077634
    151 H71         7.6640   -0.5240   -4.7790 hc        1 MOL      0.077634
    152 N14         6.3920   -0.0620   -1.3520 n         1 MOL     -0.203127
    153 C49         5.8270    1.0360   -0.5850 c3        1 MOL     -0.143708
    154 C50         6.3330    0.9080    0.8050 c         1 MOL      0.479524
    155 O20         6.6940    1.8590    1.5790 o         1 MOL     -0.566355
    156 C51         4.2890    1.1680   -0.7560 c3        1 MOL      0.044157
    157 C52         3.5580   -0.1660   -0.3180 c3        1 MOL      0.047865
    158 C53         2.1020   -0.1480   -0.6210 c         1 MOL      0.764502
    159 O21         1.5020   -1.2040   -0.6120 o         1 MOL     -0.719020
    160 O22         1.4250    0.9170   -0.5530 o         1 MOL     -0.719020
    161 H72         5.8130   -0.8880   -1.4510 hn        1 MOL      0.250226
    162 H73         6.1830    1.9850   -0.9870 h1        1 MOL      0.120944
    163 H74         4.0860    1.2500   -1.8210 hc        1 MOL     -0.018706
    164 H75         3.8890    1.9880   -0.1650 hc        1 MOL     -0.018706
    165 H76         3.7160   -0.1570    0.7650 hc        1 MOL     -0.023638
    166 H77         4.0250   -1.0180   -0.7920 hc        1 MOL     -0.023638
    167 N15         6.6130   -0.3630    1.2420 n         1 MOL     -0.099483
    168 C54         7.0450   -0.5140    2.5910 c3        1 MOL     -0.195960
    169 H78         7.6450    0.3500    2.8780 h1        1 MOL      0.078007
    170 H79         6.1760   -0.5870    3.2450 h1        1 MOL      0.078007
    171 H80         7.6460   -1.4200    2.6810 h1        1 MOL      0.078007
    172 H81         6.3570   -1.2250    0.7990 hn        1 MOL      0.206862
    173 Ca1        -0.7880   -0.0990   -1.4250 Ca        1 MOL      1.715395
    174 O23         0.7750   -0.1740   -3.5000 oh        1 MOL     -0.826208
    175 H82         0.7440   -0.9220   -4.0940 ho        1 MOL      0.409077
    176 H83         1.3790    0.4450   -3.9170 ho        1 MOL      0.409077
    177 O24        -0.8330   -2.7390   -2.5880 oh        1 MOL     -0.826208
    178 H84        -0.2830   -2.7280   -3.3700 ho        1 MOL      0.409077
    179 H85        -0.7680   -3.6290   -2.2580 ho        1 MOL      0.409077
@<TRIPOS>BOND
     1    1    2 1   
     2    1    4 1   
     3    1    5 1   
     4    1    6 1   
     5    2    3 2   
     6    2    7 1   
     7    7    8 1   
     8    7   15 1   
     9    8    9 1   
    10    8   11 1   
    11    8   16 1   
    12    9   10 2   
    13    9   19 1   
    14   11   12 1   
    15   11   17 1   
    16   11   18 1   
    17   12   13 1   
    18   12   14 1   
    19   19   20 1   
    20   19   28 1   
    21   20   21 1   
    22   20   23 1   
    23   20   29 1   
    24   21   22 2   
    25   21   41 1   
    26   23   24 1   
    27   23   30 1   
    28   23   31 1   
    29   24   25 1   
    30   24   32 1   
    31   24   33 1   
    32   25   26 1   
    33   25   34 1   
    34   25   35 1   
    35   26   27 1   
    36   26   36 1   
    37   26   37 1   
    38   27   38 1   
    39   27   39 1   
    40   27   40 1   
    41   41   42 1   
    42   41   49 1   
    43   42   43 1   
    44   42   45 1   
    45   42   50 1   
    46   43   44 2   
    47   43   53 1   
    48   45   46 1   
    49   45   51 1   
    50   45   52 1   
    51   46   47 1   
    52   46   48 1   
    53   53   54 1   
    54   53   57 1   
    55   54   55 1   
    56   54   58 1   
    57   54   59 1   
    58   55   56 2   
    59   55   60 1   
    60   60   61 1   
    61   60   68 1   
    62   61   62 1   
    63   61   64 1   
    64   61   69 1   
    65   62   63 2   
    66   62   74 1   
    67   64   65 1   
    68   64   70 1   
    69   64   71 1   
    70   65   66 1   
    71   65   67 2   
    72   66   72 1   
    73   66   73 1   
    74   74   75 1   
    75   74   78 1   
    76   75   76 1   
    77   75   79 1   
    78   75   80 1   
    79   76   77 2   
    80   76   81 1   
    81   81   82 1   
    82   81   93 1   
    83   82   83 1   
    84   82   85 1   
    85   82   94 1   
    86   83   84 2   
    87   83  102 1   
    88   85   86 1   
    89   85   95 1   
    90   85   96 1   
    91   86   87 ar  
    92   86   88 ar  
    93   87   89 ar  
    94   87   97 1   
    95   88   90 ar  
    96   88   98 1   
    97   89   91 ar  
    98   89   99 1   
    99   90   91 ar  
   100   90  100 1   
   101   91   92 1   
   102   92  101 1   
   103  102  103 1   
   104  102  110 1   
   105  103  104 1   
   106  103  106 1   
   107  103  111 1   
   108  104  105 2   
   109  104  121 1   
   110  106  107 1   
   111  106  108 1   
   112  106  112 1   
   113  107  109 1   
   114  107  113 1   
   115  107  114 1   
   116  108  115 1   
   117  108  116 1   
   118  108  117 1   
   119  109  118 1   
   120  109  119 1   
   121  109  120 1   
   122  121  122 1   
   123  121  127 1   
   124  122  123 1   
   125  122  125 1   
   126  122  128 1   
   127  123  124 2   
   128  123  132 1   
   129  125  126 1   
   130  125  129 1   
   131  125  130 1   
   132  126  131 1   
   133  132  133 1   
   134  132  137 1   
   135  133  134 1   
   136  133  136 1   
   137  133  138 1   
   138  134  135 2   
   139  134  142 1   
   140  136  139 1   
   141  136  140 1   
   142  136  141 1   
   143  142  143 1   
   144  142  147 1   
   145  143  144 1   
   146  143  146 1   
   147  143  148 1   
   148  144  145 2   
   149  144  152 1   
   150  146  149 1   
   151  146  150 1   
   152  146  151 1   
   153  152  153 1   
   154  152  161 1   
   155  153  154 1   
   156  153  156 1   
   157  153  162 1   
   158  154  155 2   
   159  154  167 1   
   160  156  157 1   
   161  156  163 1   
   162  156  164 1   
   163  157  158 1   
   164  157  165 1   
   165  157  166 1   
   166  158  159 1   
   167  158  160 1   
   168  167  168 1   
   169  167  172 1   
   170  168  169 1   
   171  168  170 1   
   172  168  171 1   
   173  174  175 1   
   174  174  176 1   
   175  177  178 1   
   176  177  179 1   
@<TRIPOS>SUBSTRUCTURE
     1 MOL         1 TEMP              0 ****  ****    0 ROOT
