@<TRIPOS>MOLECULE
MOL
  175   173     1     0     0
SMALL
resp


@<TRIPOS>ATOM
      1 C1          0.1810    4.0940    5.0110 c3        1 MOL     -0.372128
      2 C2         -0.5090    3.9700    3.6280 c         1 MOL      0.730878
      3 O1          0.1750    3.7880    2.5970 o         1 MOL     -0.552644
      4 H1         -0.2020    3.3230    5.6790 hc        1 MOL      0.090669
      5 H2          1.2570    3.9700    4.8930 hc        1 MOL      0.090669
      6 H3         -0.0280    5.0770    5.4340 hc        1 MOL      0.090669
      7 N1         -1.8540    3.9830    3.5950 n         1 MOL     -0.681941
      8 C3         -2.5430    3.7040    2.3480 c3        1 MOL      0.219164
      9 C4         -3.1670    4.9120    1.5330 c         1 MOL      0.559050
     10 O2         -3.5800    5.9140    2.1300 o         1 MOL     -0.593001
     11 C5         -3.6770    2.7630    2.7430 c3        1 MOL     -0.234213
     12 C6         -4.3680    2.2280    1.4850 c         1 MOL      0.587515
     13 O3         -5.5800    2.1560    1.3810 o         1 MOL     -0.617172
     14 O4         -3.7030    1.8700    0.4560 o         1 MOL     -0.617172
     15 H4         -2.4060    4.0890    4.4250 hn        1 MOL      0.346137
     16 H5         -1.9520    3.1660    1.6080 h1        1 MOL     -0.002908
     17 H6         -4.4110    3.3350    3.3050 hc        1 MOL      0.050312
     18 H7         -3.2760    1.9320    3.3290 hc        1 MOL      0.050312
     19 N2         -3.3450    4.8370    0.2360 n         1 MOL     -0.275817
     20 C7         -4.1330    5.6560   -0.5770 c3        1 MOL      0.146186
     21 C8         -4.8870    4.9510   -1.7490 c         1 MOL      0.349396
     22 O5         -5.4680    5.6790   -2.5620 o         1 MOL     -0.541383
     23 C9         -3.0770    6.5790   -1.2370 c3        1 MOL     -0.359843
     24 H8         -2.8550    4.1350   -0.2990 hn        1 MOL      0.191910
     25 H9         -4.8160    6.2010    0.0750 h1        1 MOL      0.064651
     26 H10        -3.6490    7.2440   -1.8870 hc        1 MOL      0.094249
     27 H11        -2.4160    7.0170   -0.4880 hc        1 MOL      0.094249
     28 H12        -2.4210    6.0930   -1.9610 hc        1 MOL      0.094249
     29 N3         -4.8590    3.6380   -1.8470 n         1 MOL     -0.141216
     30 C10        -5.4260    2.8550   -3.0120 c3        1 MOL      0.090791
     31 C11        -6.4670    1.7940   -2.5030 c         1 MOL      0.251286
     32 O6         -7.3430    1.4250   -3.3160 o         1 MOL     -0.530639
     33 C12        -4.2800    2.1410   -3.7960 c3        1 MOL     -0.164795
     34 C13        -3.3780    1.3610   -2.9080 c         1 MOL      0.656474
     35 O7         -3.7990    0.5490   -2.0560 o         1 MOL     -0.714474
     36 O8         -2.0980    1.5130   -2.9890 o         1 MOL     -0.714474
     37 H13        -4.5110    3.0790   -1.0780 hn        1 MOL      0.172944
     38 H14        -6.0020    3.5390   -3.6480 h1        1 MOL      0.078651
     39 H15        -3.8550    2.9260   -4.4120 hc        1 MOL      0.053961
     40 H16        -4.6760    1.4170   -4.5080 hc        1 MOL      0.053961
     41 N4         -6.4630    1.3650   -1.2270 n         1 MOL      0.030739
     42 C14        -7.3860    0.3590   -0.6920 c3        1 MOL     -0.323277
     43 C15        -7.2310   -1.0370   -1.0930 c         1 MOL      0.517472
     44 O9         -8.1870   -1.8050   -0.9710 o         1 MOL     -0.611538
     45 H17        -5.7960    1.7800   -0.5920 hn        1 MOL      0.009171
     46 H18        -8.3500    0.7650   -0.9970 h1        1 MOL      0.135635
     47 H19        -7.2320    0.4050    0.3900 h1        1 MOL      0.135635
     48 N5         -6.1380   -1.4480   -1.6540 n         1 MOL     -0.157574
     49 C16        -5.8570   -2.8270   -2.0580 c3        1 MOL     -0.075817
     50 C17        -5.8090   -3.8670   -0.9550 c         1 MOL      0.440139
     51 O10        -5.8490   -5.0930   -1.3090 o         1 MOL     -0.557173
     52 C18        -4.5960   -2.9290   -2.9920 c3        1 MOL     -0.268479
     53 C19        -3.2300   -2.5970   -2.4110 c         1 MOL      0.652919
     54 N6         -2.2330   -2.6030   -3.2120 n         1 MOL     -0.667008
     55 O11        -3.0840   -2.3730   -1.2300 o         1 MOL     -0.528873
     56 H20        -5.4440   -0.7430   -1.8690 hn        1 MOL      0.235293
     57 H21        -6.7590   -3.1070   -2.6040 h1        1 MOL      0.109982
     58 H22        -4.8010   -2.3370   -3.8850 hc        1 MOL      0.085882
     59 H23        -4.4650   -3.9670   -3.2770 hc        1 MOL      0.085882
     60 H24        -2.3870   -2.7230   -4.2030 hn        1 MOL      0.336062
     61 H25        -1.3090   -2.4340   -2.8290 hn        1 MOL      0.336062
     62 N7         -5.7170   -3.4410    0.3010 n         1 MOL     -0.086789
     63 C20        -5.7350   -4.2110    1.5370 c3        1 MOL     -0.439423
     64 C21        -4.3870   -4.5370    2.1830 c         1 MOL      0.700324
     65 O12        -4.3440   -5.3020    3.1460 o         1 MOL     -0.611430
     66 H26        -5.4740   -2.4650    0.3920 hn        1 MOL      0.179970
     67 H27        -6.1940   -5.1680    1.2810 h1        1 MOL      0.162797
     68 H28        -6.2820   -3.5340    2.1860 h1        1 MOL      0.162797
     69 N8         -3.2910   -4.0360    1.6280 n         1 MOL     -0.428892
     70 C22        -1.9180   -4.4670    1.9050 c3        1 MOL     -0.010706
     71 C23        -1.0090   -3.2000    1.7960 c         1 MOL      0.486210
     72 O13        -1.3310   -2.2550    1.0930 o         1 MOL     -0.584722
     73 C24        -1.5660   -5.5860    0.8800 c3        1 MOL      0.429913
     74 C25        -2.2450   -6.8760    1.1260 c3        1 MOL     -0.165281
     75 O14        -1.8150   -5.1800   -0.4620 oh        1 MOL     -0.575944
     76 H29        -3.3860   -3.4940    0.7750 hn        1 MOL      0.252440
     77 H30        -1.7740   -4.7230    2.9610 h1        1 MOL      0.059428
     78 H31        -0.5070   -5.7690    1.0360 h1        1 MOL     -0.055066
     79 H32        -1.7940   -4.2200   -0.3930 ho        1 MOL      0.328494
     80 H33        -1.9310   -7.1580    2.1290 hc        1 MOL      0.038806
     81 H34        -3.3310   -6.8130    1.0600 hc        1 MOL      0.038806
     82 H35        -1.8440   -7.7060    0.5460 hc        1 MOL      0.038806
     83 N9          0.1710   -3.3400    2.4490 n         1 MOL     -0.412411
     84 C26         1.2490   -2.4140    2.3260 c3        1 MOL      0.253460
     85 C27         2.1260   -2.6530    1.0790 c         1 MOL      0.380097
     86 O15         3.0250   -3.5150    1.1200 o         1 MOL     -0.560442
     87 C28         2.1060   -2.3020    3.6260 c3        1 MOL     -0.085820
     88 C29         1.2470   -1.8120    4.7580 c3        1 MOL      0.084906
     89 C30         3.3370   -1.4470    3.5000 c3        1 MOL      0.018855
     90 C31         1.8640   -1.7260    6.2030 c3        1 MOL     -0.094219
     91 H36         0.4720   -4.2050    2.8560 hn        1 MOL      0.250197
     92 H37         0.8720   -1.4010    2.2800 h1        1 MOL     -0.030841
     93 H38         2.4060   -3.3130    3.8970 hc        1 MOL     -0.003269
     94 H39         0.3050   -2.3510    4.8890 hc        1 MOL     -0.024023
     95 H40         0.8610   -0.8410    4.4780 hc        1 MOL     -0.024023
     96 H41         3.0680   -0.4200    3.2230 hc        1 MOL      0.005881
     97 H42         3.9500   -1.5330    4.4020 hc        1 MOL      0.005881
     98 H43         3.9750   -1.9290    2.7590 hc        1 MOL      0.005881
     99 H44         1.0790   -1.4680    6.9070 hc        1 MOL      0.012745
    100 H45         2.2350   -2.6670    6.5840 hc        1 MOL      0.012745
    101 H46         2.6230   -0.9450    6.2740 hc        1 MOL      0.012745
    102 N10         1.8410   -1.9160   -0.0270 n         1 MOL     -0.177935
    103 C32         2.7690   -1.8830   -1.1850 c3        1 MOL      0.042295
    104 C33         4.1980   -1.3580   -0.6840 c         1 MOL      0.552138
    105 O16         4.3840   -0.7250    0.3420 o         1 MOL     -0.401188
    106 C34         2.1850   -0.9770   -2.2950 c3        1 MOL     -0.339385
    107 C35         0.7580   -1.3400   -2.5770 c         1 MOL      0.778012
    108 O17        -0.1820   -0.8760   -1.8890 o         1 MOL     -0.682995
    109 O18         0.5670   -2.1970   -3.4650 o         1 MOL     -0.682995
    110 H47         1.1170   -1.2180   -0.0330 hn        1 MOL      0.103267
    111 H48         2.9560   -2.8880   -1.5390 h1        1 MOL      0.065323
    112 H49         2.7950   -1.1160   -3.1880 hc        1 MOL      0.090662
    113 H50         2.3370    0.0780   -2.0640 hc        1 MOL      0.090662
    114 N11         5.1940   -1.6150   -1.5500 n         1 MOL     -0.765585
    115 C36         6.6100   -1.3290   -1.3470 c3        1 MOL      0.495301
    116 C37         6.8110    0.1550   -1.0410 c         1 MOL      0.288971
    117 O19         7.4860    0.4930   -0.0600 o         1 MOL     -0.481075
    118 C38         7.4530   -1.8930   -2.5040 c3        1 MOL     -0.166912
    119 C39         8.9330   -1.6510   -2.4860 ca        1 MOL     -0.033340
    120 C40         9.6870   -1.4330   -1.3400 ca        1 MOL     -0.026857
    121 C41         9.6000   -1.4040   -3.7200 ca        1 MOL     -0.026857
    122 C42        11.0360   -1.1140   -1.4180 ca        1 MOL     -0.233450
    123 C43        10.9850   -0.9550   -3.8170 ca        1 MOL     -0.233450
    124 C44        11.6710   -0.6950   -2.6200 ca        1 MOL     -0.010391
    125 H51         4.9690   -2.1010   -2.4100 hn        1 MOL      0.360345
    126 H52         7.0210   -1.8120   -0.4580 h1        1 MOL      0.024172
    127 H53         7.0120   -1.4150   -3.3730 hc        1 MOL      0.052328
    128 H54         7.2070   -2.9510   -2.5630 hc        1 MOL      0.052328
    129 H55         9.2160   -1.5770   -0.3790 ha        1 MOL      0.082602
    130 H56         9.1050   -1.5020   -4.6700 ha        1 MOL      0.082602
    131 H57        11.5030   -0.9980   -0.4520 ha        1 MOL      0.134600
    132 H58        11.3520   -0.6920   -4.7980 ha        1 MOL      0.134600
    133 H59        12.6760   -0.2820   -2.5950 ha        1 MOL      0.089828
    134 N12         6.3140    1.1770   -1.8240 n         1 MOL     -0.137425
    135 C45         6.3610    2.5580   -1.4050 c3        1 MOL      0.051233
    136 C46         5.8100    2.7860   -0.0040 c         1 MOL      0.346319
    137 O20         6.2460    3.7750    0.5600 o         1 MOL     -0.515194
    138 C47         5.5130    3.3230   -2.4860 c3        1 MOL     -0.155601
    139 C48         4.8380    2.2660   -3.3560 c3        1 MOL     -0.019935
    140 C49         5.6670    1.0220   -3.1210 c3        1 MOL      0.159902
    141 H60         7.3570    3.0100   -1.3730 h1        1 MOL      0.062538
    142 H61         4.8390    4.0570   -2.0680 hc        1 MOL      0.065259
    143 H62         6.2340    3.7980   -3.1570 hc        1 MOL      0.065259
    144 H63         3.8280    2.0860   -2.9710 hc        1 MOL      0.030995
    145 H64         4.8410    2.5150   -4.4130 hc        1 MOL      0.030995
    146 H65         5.0430    0.1380   -3.1790 h1        1 MOL     -0.039064
    147 H66         6.4420    0.8620   -3.8690 h1        1 MOL     -0.039064
    148 N13         4.8290    2.0060    0.5670 n         1 MOL     -0.108567
    149 C50         4.1060    2.2760    1.7930 c3        1 MOL     -0.121696
    150 C51         5.0230    1.8920    2.9760 c         1 MOL      0.419432
    151 O21         5.0290    2.6070    3.9780 o         1 MOL     -0.545766
    152 C52         2.6880    1.6400    1.6630 c3        1 MOL      0.053339
    153 C53         1.8640    2.2070    0.5630 c3        1 MOL     -0.247213
    154 C54         0.5210    1.4860    0.4060 c         1 MOL      0.684755
    155 O22         0.3380    0.3140    0.7820 o         1 MOL     -0.665392
    156 O23        -0.4470    2.0210   -0.1520 o         1 MOL     -0.665392
    157 H67         4.6450    1.1310    0.0950 hn        1 MOL      0.127522
    158 H68         3.9600    3.3560    1.8740 h1        1 MOL      0.117971
    159 H69         2.1370    1.7720    2.5890 hc        1 MOL      0.043553
    160 H70         2.6930    0.5850    1.3820 hc        1 MOL      0.043553
    161 H71         2.3650    2.0320   -0.3930 hc        1 MOL      0.078734
    162 H72         1.6350    3.2480    0.7770 hc        1 MOL      0.078734
    163 N14         5.7880    0.7740    2.9120 n         1 MOL     -0.033679
    164 C55         6.7530    0.3480    3.9150 c3        1 MOL     -0.189903
    165 H73         6.2560   -0.2870    4.6490 h1        1 MOL      0.071201
    166 H74         7.5540   -0.2130    3.4350 h1        1 MOL      0.071201
    167 H75         7.1690    1.2230    4.4150 h1        1 MOL      0.071201
    168 H76         5.7370    0.2480    2.0520 hn        1 MOL      0.087300
    169 Ca1        -2.1040   -0.0180   -0.4380 Ca        1 MOL      1.699741
    170 O24        -1.8090    0.2440    2.3290 oh        1 MOL     -0.753923
    171 H77        -0.8880    0.3500    2.0680 ho        1 MOL      0.382213
    172 H78        -1.8220    0.4560    3.2590 ho        1 MOL      0.382213
    173 O25        -4.6460   -0.7030    0.8560 oh        1 MOL     -0.753923
    174 H79        -4.9710    0.1860    0.7200 ho        1 MOL      0.382213
    175 H80        -4.7660   -0.8540    1.7940 ho        1 MOL      0.382213
@<TRIPOS>BOND
     1    1    2 1   
     2    1    4 1   
     3    1    5 1   
     4    1    6 1   
     5    2    3 2   
     6    2    7 1   
     7    7    8 1   
     8    7   15 1   
     9    8    9 1   
    10    8   11 1   
    11    8   16 1   
    12    9   10 2   
    13    9   19 1   
    14   11   12 1   
    15   11   17 1   
    16   11   18 1   
    17   12   13 1   
    18   12   14 1   
    19   19   20 1   
    20   19   24 1   
    21   20   21 1   
    22   20   23 1   
    23   20   25 1   
    24   21   22 2   
    25   21   29 1   
    26   23   26 1   
    27   23   27 1   
    28   23   28 1   
    29   29   30 1   
    30   29   37 1   
    31   30   31 1   
    32   30   33 1   
    33   30   38 1   
    34   31   32 2   
    35   31   41 1   
    36   33   34 1   
    37   33   39 1   
    38   33   40 1   
    39   34   35 1   
    40   34   36 1   
    41   41   42 1   
    42   41   45 1   
    43   42   43 1   
    44   42   46 1   
    45   42   47 1   
    46   43   44 2   
    47   43   48 1   
    48   48   49 1   
    49   48   56 1   
    50   49   50 1   
    51   49   52 1   
    52   49   57 1   
    53   50   51 2   
    54   50   62 1   
    55   52   53 1   
    56   52   58 1   
    57   52   59 1   
    58   53   54 1   
    59   53   55 2   
    60   54   60 1   
    61   54   61 1   
    62   62   63 1   
    63   62   66 1   
    64   63   64 1   
    65   63   67 1   
    66   63   68 1   
    67   64   65 2   
    68   64   69 1   
    69   69   70 1   
    70   69   76 1   
    71   70   71 1   
    72   70   73 1   
    73   70   77 1   
    74   71   72 2   
    75   71   83 1   
    76   73   74 1   
    77   73   75 1   
    78   73   78 1   
    79   74   80 1   
    80   74   81 1   
    81   74   82 1   
    82   75   79 1   
    83   83   84 1   
    84   83   91 1   
    85   84   85 1   
    86   84   87 1   
    87   84   92 1   
    88   85   86 2   
    89   85  102 1   
    90   87   88 1   
    91   87   89 1   
    92   87   93 1   
    93   88   90 1   
    94   88   94 1   
    95   88   95 1   
    96   89   96 1   
    97   89   97 1   
    98   89   98 1   
    99   90   99 1   
   100   90  100 1   
   101   90  101 1   
   102  102  103 1   
   103  102  110 1   
   104  103  104 1   
   105  103  106 1   
   106  103  111 1   
   107  104  105 2   
   108  104  114 1   
   109  106  107 1   
   110  106  112 1   
   111  106  113 1   
   112  107  108 1   
   113  107  109 1   
   114  114  115 1   
   115  114  125 1   
   116  115  116 1   
   117  115  118 1   
   118  115  126 1   
   119  116  117 2   
   120  116  134 1   
   121  118  119 1   
   122  118  127 1   
   123  118  128 1   
   124  119  120 ar  
   125  119  121 ar  
   126  120  122 ar  
   127  120  129 1   
   128  121  123 ar  
   129  121  130 1   
   130  122  124 ar  
   131  122  131 1   
   132  123  124 ar  
   133  123  132 1   
   134  124  133 1   
   135  134  135 1   
   136  134  140 1   
   137  135  136 1   
   138  135  138 1   
   139  135  141 1   
   140  136  137 2   
   141  136  148 1   
   142  138  139 1   
   143  138  142 1   
   144  138  143 1   
   145  139  140 1   
   146  139  144 1   
   147  139  145 1   
   148  140  146 1   
   149  140  147 1   
   150  148  149 1   
   151  148  157 1   
   152  149  150 1   
   153  149  152 1   
   154  149  158 1   
   155  150  151 2   
   156  150  163 1   
   157  152  153 1   
   158  152  159 1   
   159  152  160 1   
   160  153  154 1   
   161  153  161 1   
   162  153  162 1   
   163  154  155 1   
   164  154  156 1   
   165  163  164 1   
   166  163  168 1   
   167  164  165 1   
   168  164  166 1   
   169  164  167 1   
   170  170  171 1   
   171  170  172 1   
   172  173  174 1   
   173  173  175 1   
@<TRIPOS>SUBSTRUCTURE
     1 MOL         1 TEMP              0 ****  ****    0 ROOT
