@<TRIPOS>MOLECULE
MOL
  189   185     1     0     0
SMALL
resp


@<TRIPOS>ATOM
      1 C1         -0.0110    2.3840    6.0410 c3        1 MOL     -0.333397
      2 C2         -0.2520    2.0160    4.5690 c         1 MOL      0.760845
      3 O1          0.6770    2.2860    3.7710 o         1 MOL     -0.629326
      4 H1          0.0150    1.4760    6.6430 hc        1 MOL      0.085031
      5 H2          0.9390    2.9090    6.1340 hc        1 MOL      0.085031
      6 H3         -0.8170    3.0280    6.3910 hc        1 MOL      0.085031
      7 N1         -1.4750    1.6250    4.1880 n         1 MOL     -0.701820
      8 C3         -2.0190    1.6470    2.8600 c3        1 MOL      0.091384
      9 C4         -2.4860    3.0820    2.4360 c         1 MOL      0.514026
     10 O2         -3.0560    3.8830    3.1750 o         1 MOL     -0.637533
     11 C5         -3.1770    0.6620    2.7740 c3        1 MOL     -0.029637
     12 C6         -3.8260    0.6060    1.3960 c         1 MOL      0.564446
     13 O3         -5.0030    0.2270    1.3490 o         1 MOL     -0.640688
     14 O4         -3.1740    0.8950    0.3780 o         1 MOL     -0.640688
     15 H4         -2.0810    1.4630    4.9820 hn        1 MOL      0.350122
     16 H5         -1.2070    1.3440    2.1910 h1        1 MOL      0.105839
     17 H6         -3.9320    0.6390    3.5530 hc        1 MOL      0.030206
     18 H7         -2.6570   -0.2860    2.9570 hc        1 MOL      0.030206
     19 N2         -2.0670    3.3650    1.2350 n         1 MOL      0.014692
     20 C7         -2.2940    4.6630    0.4720 c3        1 MOL     -0.096216
     21 C8         -3.3370    4.6420   -0.6200 c         1 MOL      0.727176
     22 O5         -3.7170    5.7180   -1.0090 o         1 MOL     -0.568031
     23 C9         -0.9070    4.9210   -0.1730 c3        1 MOL      0.034815
     24 C10         0.3470    4.9330    0.6340 c3        1 MOL      0.016381
     25 C11         0.4390    6.0260    1.6740 c3        1 MOL     -0.123018
     26 C12        -0.3950    5.6950    2.9270 c3        1 MOL      0.198857
     27 N3         -0.0140    6.6310    4.0060 n4        1 MOL     -0.496133
     28 H8         -1.6120    2.5770    0.7920 hn        1 MOL     -0.178922
     29 H9         -2.5720    5.5170    1.0990 h1        1 MOL      0.046900
     30 H10        -1.0110    5.8690   -0.7110 hc        1 MOL      0.018440
     31 H11        -0.7710    4.1370   -0.9160 hc        1 MOL      0.018440
     32 H12         1.2760    4.9020    0.0580 hc        1 MOL      0.043702
     33 H13         0.2260    4.0610    1.2760 hc        1 MOL      0.043702
     34 H14         0.2380    7.0320    1.3090 hc        1 MOL      0.005173
     35 H15         1.4630    5.9520    2.0380 hc        1 MOL      0.005173
     36 H16        -0.2150    4.6520    3.1860 hx        1 MOL      0.074382
     37 H17        -1.4200    5.8460    2.5900 hx        1 MOL      0.074382
     38 H18        -0.3820    7.5390    3.7700 hn        1 MOL      0.347794
     39 H19        -0.3330    6.3480    4.9250 hn        1 MOL      0.347794
     40 H20         0.9850    6.7130    3.9510 hn        1 MOL      0.347794
     41 N4         -3.9670    3.4760   -0.9750 n         1 MOL     -0.655427
     42 C13        -4.7540    3.3900   -2.1920 c3        1 MOL      0.069551
     43 C14        -6.2220    2.9860   -1.9140 c         1 MOL      0.432661
     44 O6         -7.1110    3.1510   -2.7590 o         1 MOL     -0.550923
     45 C15        -4.0510    2.5490   -3.2220 c3        1 MOL      0.033317
     46 C16        -2.4660    2.7530   -3.1550 c         1 MOL      0.632494
     47 O7         -1.8020    1.9020   -2.4920 o         1 MOL     -0.654934
     48 O8         -1.9440    3.6480   -3.8420 o         1 MOL     -0.654934
     49 H21        -3.6170    2.6000   -0.6130 hn        1 MOL      0.292057
     50 H22        -4.8320    4.3230   -2.7520 h1        1 MOL      0.099389
     51 H23        -4.4740    2.7630   -4.2060 hc        1 MOL     -0.024486
     52 H24        -4.1990    1.5030   -2.9890 hc        1 MOL     -0.024486
     53 N5         -6.5430    2.5750   -0.7100 n         1 MOL     -0.269802
     54 C17        -7.8140    1.8960   -0.4370 c3        1 MOL     -0.266054
     55 C18        -7.8320    0.4060   -0.9070 c         1 MOL      0.506002
     56 O9         -8.7800   -0.3550   -0.5570 o         1 MOL     -0.559275
     57 H25        -5.8100    2.6500   -0.0170 hn        1 MOL      0.280945
     58 H26        -8.6710    2.4980   -0.7500 h1        1 MOL      0.141177
     59 H27        -7.8640    1.9280    0.6570 h1        1 MOL      0.141177
     60 N6         -6.8750   -0.0130   -1.7490 n         1 MOL     -0.285947
     61 C19        -6.8130   -1.4440   -2.0590 c3        1 MOL     -0.033254
     62 C20        -6.7520   -2.3640   -0.8580 c         1 MOL      0.567065
     63 O10        -6.9740   -3.5640   -1.0050 o         1 MOL     -0.596650
     64 C21        -5.6930   -1.7900   -3.0090 c3        1 MOL     -0.300605
     65 C22        -4.2650   -1.4640   -2.5130 c         1 MOL      0.757728
     66 O11        -3.3190   -1.2050   -3.3470 o         1 MOL     -0.754170
     67 O12        -4.1210   -1.4550   -1.2990 o         1 MOL     -0.754170
     68 H28        -6.1810    0.6380   -2.0720 hn        1 MOL      0.276103
     69 H29        -7.7920   -1.7030   -2.4690 h1        1 MOL      0.095311
     70 H30        -5.8290   -1.2160   -3.9190 hc        1 MOL      0.089028
     71 H31        -5.7750   -2.8580   -3.2320 hc        1 MOL      0.089028
     72 N7         -6.4340   -1.8950    0.3630 n         1 MOL     -0.243784
     73 C23        -6.4760   -2.7520    1.5620 c3        1 MOL     -0.092413
     74 C24        -5.3310   -3.7550    1.6410 c         1 MOL      0.499521
     75 O13        -5.4720   -4.7740    2.2970 o         1 MOL     -0.571440
     76 H32        -6.0920   -0.9430    0.4140 hn        1 MOL      0.257069
     77 H33        -7.4450   -3.2250    1.7460 h1        1 MOL      0.079534
     78 H34        -6.3300   -2.1340    2.4410 h1        1 MOL      0.079534
     79 N8         -4.2430   -3.6470    0.8250 n         1 MOL     -0.259844
     80 C25        -2.9690   -4.4560    0.9030 c3        1 MOL     -0.035317
     81 C26        -1.8410   -3.5220    0.9310 c         1 MOL      0.489203
     82 O14        -1.9170   -2.4110    0.4260 o         1 MOL     -0.566799
     83 C27        -2.9050   -5.5260   -0.2270 c3        1 MOL      0.290521
     84 C28        -3.6100   -6.7530    0.1200 c3        1 MOL     -0.402064
     85 O15        -3.5370   -5.0460   -1.3780 oh        1 MOL     -0.578296
     86 H35        -4.2140   -2.8900    0.1540 hn        1 MOL      0.265078
     87 H36        -2.9480   -4.9090    1.8940 h1        1 MOL      0.084702
     88 H37        -1.8940   -5.8000   -0.5600 h1        1 MOL      0.055526
     89 H38        -4.4570   -5.2250   -1.1710 ho        1 MOL      0.396538
     90 H39        -3.4130   -7.6440   -0.4820 hc        1 MOL      0.108156
     91 H40        -3.4570   -6.9670    1.1790 hc        1 MOL      0.108156
     92 H41        -4.6860   -6.5420    0.1100 hc        1 MOL      0.108156
     93 N9         -0.6480   -3.9530    1.2760 n         1 MOL     -0.533153
     94 C29         0.6350   -3.1710    1.2550 c3        1 MOL      0.042173
     95 C30         1.6690   -3.7750    0.2640 c         1 MOL      0.464218
     96 O16         2.0170   -4.9510    0.3950 o         1 MOL     -0.545764
     97 C31         1.1920   -3.2070    2.7090 c3        1 MOL     -0.020609
     98 C32         0.3730   -2.1210    3.4630 c3        1 MOL      0.135304
     99 C33         2.7390   -2.9660    2.8520 c3        1 MOL     -0.285840
    100 C34         0.6870   -2.2670    4.9340 c3        1 MOL     -0.136244
    101 H42        -0.5960   -4.8550    1.7150 hn        1 MOL      0.292672
    102 H43         0.4910   -2.1240    0.9980 h1        1 MOL      0.030826
    103 H44         0.9960   -4.1490    3.2220 hc        1 MOL      0.059144
    104 H45        -0.7080   -2.1340    3.2930 hc        1 MOL      0.013156
    105 H46         0.7060   -1.1400    3.1290 hc        1 MOL      0.013156
    106 H47         3.2390   -3.9350    2.8090 hc        1 MOL      0.065331
    107 H48         3.0720   -2.2490    2.0960 hc        1 MOL      0.065331
    108 H49         3.0890   -2.6640    3.8370 hc        1 MOL      0.065331
    109 H50         0.5220   -3.3000    5.2380 hc        1 MOL      0.023655
    110 H51         1.6340   -1.8700    5.2870 hc        1 MOL      0.023655
    111 H52        -0.0820   -1.6660    5.4280 hc        1 MOL      0.023655
    112 N10         2.2280   -2.9600   -0.6140 n         1 MOL     -0.203948
    113 C35         3.4050   -3.1900   -1.4660 c3        1 MOL     -0.015083
    114 C36         4.7290   -2.8330   -0.7310 c         1 MOL      0.181253
    115 O17         4.6600   -2.1240    0.2400 o         1 MOL     -0.071194
    116 C37         3.3960   -2.1660   -2.6680 c3        1 MOL      0.095334
    117 C38         2.1330   -2.4810   -3.4770 c3        1 MOL     -0.184328
    118 O18         3.3190   -0.7570   -2.2920 oh        1 MOL     -0.505163
    119 H53         1.9330   -2.0000   -0.6150 hn        1 MOL      0.159708
    120 H54         3.4230   -4.2320   -1.7940 h1        1 MOL      0.090948
    121 H55         4.2460   -2.3480   -3.3100 h1        1 MOL      0.064843
    122 H56         2.4690   -0.3710   -2.5130 ho        1 MOL      0.348252
    123 H57         1.9950   -1.8510   -4.3480 hc        1 MOL      0.063439
    124 H58         2.1780   -3.4990   -3.8430 hc        1 MOL      0.063439
    125 H59         1.2170   -2.3700   -2.8920 hc        1 MOL      0.063439
    126 N11         5.9060   -3.1870   -1.2490 n         1 MOL     -0.126935
    127 C39         7.1760   -2.8070   -0.6370 c3        1 MOL     -0.472395
    128 C40         7.4250   -1.2940   -0.4760 c         1 MOL      0.465331
    129 O19         8.0180   -0.9370    0.5330 o         1 MOL     -0.476164
    130 C41         8.3710   -3.5010   -1.2840 c3        1 MOL      0.433410
    131 C42         8.6000   -4.9240   -0.9080 c3        1 MOL     -0.363292
    132 O20         8.2400   -3.5510   -2.6650 oh        1 MOL     -0.645981
    133 H60         5.9820   -3.7260   -2.0990 hn        1 MOL      0.254256
    134 H61         7.0900   -3.1460    0.3990 h1        1 MOL      0.231606
    135 H62         9.2800   -2.9050   -1.1460 h1        1 MOL      0.045456
    136 H63         9.0310   -3.2470   -3.1190 ho        1 MOL      0.409007
    137 H64         8.4790   -4.9900    0.1720 hc        1 MOL      0.098690
    138 H65         7.9120   -5.6670   -1.3370 hc        1 MOL      0.098690
    139 H66         9.6360   -5.1510   -1.1160 hc        1 MOL      0.098690
    140 N12         7.0960   -0.3810   -1.3600 n         1 MOL     -0.355341
    141 C43         7.1450    1.1000   -1.0010 c3        1 MOL     -0.000765
    142 C44         6.3270    1.5080    0.2060 c         1 MOL      0.252121
    143 O21         6.8130    2.1860    1.0980 o         1 MOL     -0.494976
    144 C45         6.7150    1.8920   -2.2690 c3        1 MOL     -0.208907
    145 C46         6.9620    3.4250   -2.0170 c3        1 MOL      0.066479
    146 C47         6.7780    4.2740   -3.3050 c3        1 MOL     -0.002908
    147 C48         7.0180    5.7430   -2.9360 c3        1 MOL     -0.001365
    148 N13         7.5380    6.4250   -4.1150 n4        1 MOL     -0.267717
    149 H67         6.6470   -0.5900   -2.2380 hn        1 MOL      0.265058
    150 H68         8.1760    1.3980   -0.8100 h1        1 MOL      0.130182
    151 H69         5.6740    1.6900   -2.5310 hc        1 MOL      0.074002
    152 H70         7.3240    1.6710   -3.1360 hc        1 MOL      0.074002
    153 H71         7.9670    3.6850   -1.6910 hc        1 MOL      0.020194
    154 H72         6.2830    3.7970   -1.2490 hc        1 MOL      0.020194
    155 H73         5.7570    4.1420   -3.6660 hc        1 MOL      0.026423
    156 H74         7.4390    3.9860   -4.1200 hc        1 MOL      0.026423
    157 H75         7.7510    5.7240   -2.1270 hx        1 MOL      0.096114
    158 H76         6.1110    6.1710   -2.5040 hx        1 MOL      0.096114
    159 H77         6.7210    6.6610   -4.6570 hn        1 MOL      0.292089
    160 H78         8.0340    7.2710   -3.8470 hn        1 MOL      0.292089
    161 H79         8.0660    5.8850   -4.7840 hn        1 MOL      0.292089
    162 N14         5.1680    0.9370    0.4430 n         1 MOL     -0.012975
    163 C49         4.4170    1.1100    1.6590 c3        1 MOL     -0.157839
    164 C50         5.0850    0.2450    2.8280 c         1 MOL      0.504565
    165 O22         5.1090    0.7070    3.9390 o         1 MOL     -0.571981
    166 C51         2.9710    0.7440    1.4510 c3        1 MOL      0.134961
    167 C52         2.2050    1.4690    0.3550 c3        1 MOL      0.075363
    168 C53         0.8760    0.7130    0.0250 c         1 MOL      0.693297
    169 O23         0.8610   -0.4080   -0.4920 o         1 MOL     -0.700366
    170 O24        -0.1450    1.3780   -0.1010 o         1 MOL     -0.700366
    171 H80         4.7220    0.4270   -0.3170 hn        1 MOL      0.112850
    172 H81         4.3210    2.1210    2.0390 h1        1 MOL      0.088901
    173 H82         2.4310    0.7720    2.3840 hc        1 MOL      0.000961
    174 H83         3.0050   -0.2930    1.0840 hc        1 MOL      0.000961
    175 H84         2.7950    1.5820   -0.5500 hc        1 MOL     -0.037372
    176 H85         2.0470    2.4930    0.7110 hc        1 MOL     -0.037372
    177 N15         5.6720   -0.9550    2.5930 n         1 MOL      0.025347
    178 C54         6.2980   -1.7390    3.6610 c3        1 MOL     -0.340259
    179 H86         5.5880   -2.4780    4.0320 h1        1 MOL      0.116009
    180 H87         7.1790   -2.2470    3.2700 h1        1 MOL      0.116009
    181 H88         6.5900   -1.0760    4.4750 h1        1 MOL      0.116009
    182 H89         5.5520   -1.3000    1.6490 hn        1 MOL     -0.036307
    183 Ca1        -1.6840   -0.3520   -1.3450 Ca        1 MOL      1.756457
    184 O25        -0.5790   -0.4450   -3.8040 oh        1 MOL     -0.791026
    185 H90        -0.0580   -0.9370   -4.4390 ho        1 MOL      0.391073
    186 H91        -0.9070    0.3090   -4.3010 ho        1 MOL      0.391073
    187 O26        -1.2320   -3.1220   -2.1280 oh        1 MOL     -0.791026
    188 H92        -0.7870   -3.7760   -2.6590 ho        1 MOL      0.391073
    189 H93        -1.8500   -3.6210   -1.5990 ho        1 MOL      0.391073
@<TRIPOS>BOND
     1    1    2 1   
     2    1    4 1   
     3    1    5 1   
     4    1    6 1   
     5    2    3 2   
     6    2    7 1   
     7    7    8 1   
     8    7   15 1   
     9    8    9 1   
    10    8   11 1   
    11    8   16 1   
    12    9   10 2   
    13    9   19 1   
    14   11   12 1   
    15   11   17 1   
    16   11   18 1   
    17   12   13 1   
    18   12   14 1   
    19   19   20 1   
    20   19   28 1   
    21   20   21 1   
    22   20   23 1   
    23   20   29 1   
    24   21   22 2   
    25   21   41 1   
    26   23   24 1   
    27   23   30 1   
    28   23   31 1   
    29   24   25 1   
    30   24   32 1   
    31   24   33 1   
    32   25   26 1   
    33   25   34 1   
    34   25   35 1   
    35   26   27 1   
    36   26   36 1   
    37   26   37 1   
    38   27   38 1   
    39   27   39 1   
    40   27   40 1   
    41   41   42 1   
    42   41   49 1   
    43   42   43 1   
    44   42   45 1   
    45   42   50 1   
    46   43   44 2   
    47   43   53 1   
    48   45   46 1   
    49   45   51 1   
    50   45   52 1   
    51   46   47 1   
    52   46   48 1   
    53   53   54 1   
    54   53   57 1   
    55   54   55 1   
    56   54   58 1   
    57   54   59 1   
    58   55   56 2   
    59   55   60 1   
    60   60   61 1   
    61   60   68 1   
    62   61   62 1   
    63   61   64 1   
    64   61   69 1   
    65   62   63 2   
    66   62   72 1   
    67   64   65 1   
    68   64   70 1   
    69   64   71 1   
    70   65   66 1   
    71   65   67 1   
    72   72   73 1   
    73   72   76 1   
    74   73   74 1   
    75   73   77 1   
    76   73   78 1   
    77   74   75 2   
    78   74   79 1   
    79   79   80 1   
    80   79   86 1   
    81   80   81 1   
    82   80   83 1   
    83   80   87 1   
    84   81   82 2   
    85   81   93 1   
    86   83   84 1   
    87   83   85 1   
    88   83   88 1   
    89   84   90 1   
    90   84   91 1   
    91   84   92 1   
    92   85   89 1   
    93   93   94 1   
    94   93  101 1   
    95   94   95 1   
    96   94   97 1   
    97   94  102 1   
    98   95   96 2   
    99   95  112 1   
   100   97   98 1   
   101   97   99 1   
   102   97  103 1   
   103   98  100 1   
   104   98  104 1   
   105   98  105 1   
   106   99  106 1   
   107   99  107 1   
   108   99  108 1   
   109  100  109 1   
   110  100  110 1   
   111  100  111 1   
   112  112  113 1   
   113  112  119 1   
   114  113  114 1   
   115  113  116 1   
   116  113  120 1   
   117  114  115 2   
   118  114  126 1   
   119  116  117 1   
   120  116  118 1   
   121  116  121 1   
   122  117  123 1   
   123  117  124 1   
   124  117  125 1   
   125  118  122 1   
   126  126  127 1   
   127  126  133 1   
   128  127  128 1   
   129  127  130 1   
   130  127  134 1   
   131  128  129 2   
   132  128  140 1   
   133  130  131 1   
   134  130  132 1   
   135  130  135 1   
   136  131  137 1   
   137  131  138 1   
   138  131  139 1   
   139  132  136 1   
   140  140  141 1   
   141  140  149 1   
   142  141  142 1   
   143  141  144 1   
   144  141  150 1   
   145  142  143 2   
   146  142  162 1   
   147  144  145 1   
   148  144  151 1   
   149  144  152 1   
   150  145  146 1   
   151  145  153 1   
   152  145  154 1   
   153  146  147 1   
   154  146  155 1   
   155  146  156 1   
   156  147  148 1   
   157  147  157 1   
   158  147  158 1   
   159  148  159 1   
   160  148  160 1   
   161  148  161 1   
   162  162  163 1   
   163  162  171 1   
   164  163  164 1   
   165  163  166 1   
   166  163  172 1   
   167  164  165 2   
   168  164  177 1   
   169  166  167 1   
   170  166  173 1   
   171  166  174 1   
   172  167  168 1   
   173  167  175 1   
   174  167  176 1   
   175  168  169 1   
   176  168  170 1   
   177  177  178 1   
   178  177  182 1   
   179  178  179 1   
   180  178  180 1   
   181  178  181 1   
   182  184  185 1   
   183  184  186 1   
   184  187  188 1   
   185  187  189 1   
@<TRIPOS>SUBSTRUCTURE
     1 MOL         1 TEMP              0 ****  ****    0 ROOT
