@<TRIPOS>MOLECULE
MOL
  189   185     1     0     0
SMALL
resp


@<TRIPOS>ATOM
      1 C1          1.3430   -2.5370    6.2680 c3        1 MOL     -0.454265
      2 C2          1.2820   -2.7640    4.7550 c         1 MOL      0.841297
      3 O1          0.7280   -1.9530    3.9680 o         1 MOL     -0.700302
      4 H1          0.4620   -1.9800    6.5870 hc        1 MOL      0.114857
      5 H2          1.3700   -3.4990    6.7790 hc        1 MOL      0.114857
      6 H3          2.2410   -1.9680    6.5140 hc        1 MOL      0.114857
      7 N1          1.7950   -3.8500    4.2380 n         1 MOL     -0.673483
      8 C3          2.2560   -3.7120    2.7980 c3        1 MOL      0.433743
      9 C4          2.1270   -4.9500    1.9550 c         1 MOL      0.419829
     10 O2          2.0740   -6.0810    2.4510 o         1 MOL     -0.598809
     11 C5          3.7430   -3.2690    2.7700 c3        1 MOL     -0.160863
     12 C6          4.3520   -3.1820    1.3470 c         1 MOL      0.660070
     13 O3          3.7940   -2.4140    0.5110 o         1 MOL     -0.661783
     14 O4          5.3480   -3.9090    1.0690 o         1 MOL     -0.661783
     15 H4          2.1770   -4.6210    4.7650 hn        1 MOL      0.331737
     16 H5          1.7040   -2.9470    2.2520 h1        1 MOL     -0.002916
     17 H6          4.3110   -3.9100    3.4520 hc        1 MOL     -0.025278
     18 H7          3.6390   -2.2960    3.2410 hc        1 MOL     -0.025278
     19 N2          1.9890   -4.6730    0.6600 n         1 MOL     -0.166052
     20 C7          1.9670   -5.6830   -0.3970 c3        1 MOL     -0.021698
     21 C8          2.9220   -5.4050   -1.5190 c         1 MOL      0.583895
     22 O5          3.5520   -6.3700   -1.9890 o         1 MOL     -0.600609
     23 C9          0.4800   -5.7430   -0.8890 c3        1 MOL      0.253781
     24 C10        -0.4640   -6.0640    0.3040 c3        1 MOL      0.077391
     25 C11         0.2380   -6.7080   -2.0150 c3        1 MOL     -0.267347
     26 C12        -1.9600   -6.4810    0.1040 c3        1 MOL     -0.132035
     27 H8          2.0040   -3.6910    0.4150 hn        1 MOL     -0.028300
     28 H9          2.1870   -6.6660    0.0110 h1        1 MOL      0.061411
     29 H10         0.3330   -4.7320   -1.2790 hc        1 MOL     -0.027646
     30 H11        -0.4860   -5.1940    0.9580 hc        1 MOL     -0.021365
     31 H12        -0.0240   -6.9170    0.8160 hc        1 MOL     -0.021365
     32 H13         0.9370   -6.4650   -2.8100 hc        1 MOL      0.037589
     33 H14         0.5490   -7.6860   -1.6280 hc        1 MOL      0.037589
     34 H15        -0.8340   -6.6310   -2.2200 hc        1 MOL      0.037589
     35 H16        -2.3790   -6.4540    1.1160 hc        1 MOL      0.027323
     36 H17        -2.4740   -5.6940   -0.4520 hc        1 MOL      0.027323
     37 H18        -2.1700   -7.4990   -0.2330 hc        1 MOL      0.027323
     38 N3          3.2680   -4.1480   -1.7980 n         1 MOL     -0.418211
     39 C13         3.9750   -3.7140   -3.0140 c3        1 MOL      0.072443
     40 C14         5.3360   -3.1290   -2.8490 c         1 MOL      0.321328
     41 O6          6.1250   -3.1080   -3.7850 o         1 MOL     -0.536595
     42 C15         3.1580   -2.7370   -3.8060 c3        1 MOL     -0.296678
     43 C16         2.5800   -1.5700   -3.0710 c         1 MOL      0.748021
     44 O7          2.9060   -1.2640   -1.8990 o         1 MOL     -0.717554
     45 O8          1.6560   -0.8820   -3.6400 o         1 MOL     -0.717554
     46 H19         3.1490   -3.4210   -1.1010 hn        1 MOL      0.373768
     47 H20         4.1360   -4.6000   -3.6290 h1        1 MOL      0.091881
     48 H21         2.3310   -3.2730   -4.2870 hc        1 MOL      0.087327
     49 H22         3.7740   -2.4460   -4.6560 hc        1 MOL      0.087327
     50 N4          5.6690   -2.6470   -1.6740 n         1 MOL     -0.098516
     51 C17         6.9980   -2.1060   -1.3560 c3        1 MOL     -0.196267
     52 C18         7.2610   -0.7030   -2.0180 c         1 MOL      0.463386
     53 O9          8.3750   -0.3980   -2.4050 o         1 MOL     -0.579181
     54 H23         4.9700   -2.5620   -0.9570 hn        1 MOL      0.229689
     55 H24         7.7790   -2.7760   -1.6980 h1        1 MOL      0.096206
     56 H25         7.0490   -2.1120   -0.2680 h1        1 MOL      0.096206
     57 N5          6.2970    0.2280   -2.0570 n         1 MOL     -0.058202
     58 C19         6.4320    1.5570   -2.5770 c3        1 MOL     -0.199510
     59 C20         6.7530    2.6830   -1.5760 c         1 MOL      0.474712
     60 O10         7.2390    3.7660   -2.0050 o         1 MOL     -0.536656
     61 C21         5.1580    1.9860   -3.3230 c3        1 MOL     -0.119501
     62 C22         3.9550    2.1670   -2.3720 c         1 MOL      0.710592
     63 O11         3.9370    1.7210   -1.2440 o         1 MOL     -0.707684
     64 O12         2.8920    2.6080   -2.9210 o         1 MOL     -0.707684
     65 H26         5.4370   -0.0720   -1.6330 hn        1 MOL      0.104715
     66 H27         7.2340    1.4650   -3.2970 h1        1 MOL      0.146452
     67 H28         4.9230    1.2510   -4.0910 hc        1 MOL      0.060012
     68 H29         5.2910    2.9340   -3.8500 hc        1 MOL      0.060012
     69 N6          6.5540    2.4140   -0.2680 n         1 MOL     -0.328082
     70 C23         6.7380    3.3950    0.7610 c3        1 MOL     -0.037870
     71 C24         5.5490    4.2330    1.1920 c         1 MOL      0.464805
     72 O13         5.7050    5.1550    1.9810 o         1 MOL     -0.581791
     73 H30         6.2540    1.5090    0.0650 hn        1 MOL      0.211312
     74 H31         7.5560    4.0870    0.5910 h1        1 MOL      0.069496
     75 H32         7.1150    2.8460    1.6210 h1        1 MOL      0.069496
     76 N7          4.3280    3.8890    0.7890 n         1 MOL     -0.425258
     77 C25         3.1340    4.6220    1.3180 c3        1 MOL      0.067477
     78 C26         2.1010    3.5060    1.6490 c         1 MOL      0.477079
     79 O14         1.9480    2.5000    0.9780 o         1 MOL     -0.525698
     80 C27         2.6000    5.6300    0.3190 c3        1 MOL     -0.120981
     81 C28         3.5980    6.7810    0.0740 c3        1 MOL     -0.509403
     82 C29         2.9890    7.8740   -0.8040 c         1 MOL      0.733472
     83 N8          2.7180    7.5810   -2.0400 n         1 MOL     -0.780154
     84 O15         2.7910    9.0210   -0.5010 o         1 MOL     -0.597552
     85 H33         4.1710    3.1220    0.1560 hn        1 MOL      0.347760
     86 H34         3.3340    5.2300    2.2060 h1        1 MOL      0.081593
     87 H35         1.6790    5.9990    0.7680 hc        1 MOL      0.097832
     88 H36         2.3510    5.1170   -0.6130 hc        1 MOL      0.097832
     89 H37         4.4900    6.3360   -0.3640 hc        1 MOL      0.190481
     90 H38         3.9710    7.2030    1.0040 hc        1 MOL      0.190481
     91 H39         2.8400    6.6020   -2.2640 hn        1 MOL      0.361499
     92 H40         2.0590    8.1770   -2.5110 hn        1 MOL      0.361499
     93 N9          1.2510    3.7750    2.6360 n         1 MOL     -0.612086
     94 C30         0.0150    2.9840    2.7810 c3        1 MOL      0.206373
     95 C31        -1.0050    3.4240    1.7090 c         1 MOL      0.695486
     96 O16        -1.0780    4.6240    1.5170 o         1 MOL     -0.635905
     97 C32        -0.5700    3.0150    4.2300 c3        1 MOL      0.173916
     98 C33        -2.0750    2.7390    4.2880 c3        1 MOL     -0.184994
     99 C34         0.0000    1.8860    5.0580 c3        1 MOL     -0.184994
    100 H41         1.3740    4.6500    3.1020 hn        1 MOL      0.304689
    101 H42         0.2300    1.9240    2.6210 h1        1 MOL      0.051043
    102 H43        -0.4830    4.0440    4.6010 hc        1 MOL     -0.020218
    103 H44        -2.4860    3.5620    3.7030 hc        1 MOL      0.023879
    104 H45        -2.3080    1.7730    3.8290 hc        1 MOL      0.023879
    105 H46        -2.4510    2.7950    5.3050 hc        1 MOL      0.023879
    106 H47        -0.4120    0.9220    4.7870 hc        1 MOL      0.023879
    107 H48         1.0660    1.9230    4.8440 hc        1 MOL      0.023879
    108 H49        -0.0400    2.0610    6.1320 hc        1 MOL      0.023879
    109 N10        -1.7860    2.5370    1.0650 n         1 MOL     -0.416691
    110 C35        -2.9770    2.8810    0.2090 c3        1 MOL      0.252109
    111 C36        -4.2090    2.1120    0.5670 c         1 MOL      0.282195
    112 O17        -4.2290    1.2880    1.5070 o         1 MOL     -0.397299
    113 C37        -2.5540    2.7620   -1.2470 c3        1 MOL     -0.475319
    114 C38        -2.7830    1.3540   -1.8640 c         1 MOL      0.778616
    115 N11        -1.7860    0.5400   -1.9170 n         1 MOL     -0.763249
    116 O18        -3.8910    1.0290   -2.3030 o         1 MOL     -0.600389
    117 H50        -1.4150    1.5990    1.1080 hn        1 MOL      0.174062
    118 H51        -3.2180    3.9190    0.4650 h1        1 MOL      0.041448
    119 H52        -1.5200    3.0530   -1.4320 hc        1 MOL      0.133656
    120 H53        -3.1620    3.4470   -1.8400 hc        1 MOL      0.133656
    121 H54        -0.8370    0.7860   -1.6430 hn        1 MOL      0.390699
    122 H55        -1.9490   -0.4340   -2.1130 hn        1 MOL      0.390699
    123 N12        -5.3730    2.5700    0.1330 n         1 MOL     -0.412808
    124 C39        -6.6820    2.2210    0.7520 c3        1 MOL      0.254684
    125 C40        -6.9620    0.7150    0.6300 c         1 MOL      0.405583
    126 O19        -7.7800    0.2940    1.4740 o         1 MOL     -0.568430
    127 C41        -7.7510    3.0660    0.1640 c3        1 MOL     -0.058500
    128 C42        -8.2200    2.6060   -1.1670 ca        1 MOL      0.067575
    129 C43        -9.0690    1.5540   -1.4500 ca        1 MOL     -0.243881
    130 C44        -7.4870    3.2220   -2.3320 ca        1 MOL     -0.243881
    131 C45        -9.2550    1.0720   -2.7290 ca        1 MOL     -0.199375
    132 C46        -7.6680    2.6980   -3.6480 ca        1 MOL     -0.199375
    133 C47        -8.5100    1.5750   -3.8500 ca        1 MOL      0.200298
    134 O20        -8.7150    1.0220   -5.1150 oh        1 MOL     -0.384145
    135 H56        -5.3900    3.3240   -0.5480 hn        1 MOL      0.278315
    136 H57        -6.6380    2.5410    1.7930 h1        1 MOL      0.029645
    137 H58        -7.3600    4.0760    0.0950 hc        1 MOL      0.004299
    138 H59        -8.5660    3.0240    0.8850 hc        1 MOL      0.004299
    139 H60        -9.7510    1.1630   -0.7100 ha        1 MOL      0.151445
    140 H61        -6.7380    3.9940   -2.2200 ha        1 MOL      0.151445
    141 H62        -9.9910    0.2970   -2.8840 ha        1 MOL      0.157375
    142 H63        -7.2620    3.1740   -4.5220 ha        1 MOL      0.157375
    143 H64        -9.1980    0.2560   -4.8010 ho        1 MOL      0.309692
    144 N13        -6.1890   -0.0090   -0.2170 n         1 MOL     -0.164401
    145 C48        -6.3330   -1.4850   -0.2710 c3        1 MOL      0.049787
    146 C49        -5.5360   -2.1980    0.8470 c         1 MOL      0.242484
    147 O21        -5.8560   -3.3050    1.2720 o         1 MOL     -0.509935
    148 C50        -5.9720   -1.9510   -1.6400 c3        1 MOL      0.008737
    149 C51        -6.8350   -1.5490   -2.9270 c3        1 MOL     -0.273247
    150 C52        -6.2380   -2.0590   -4.2460 c         1 MOL      0.771646
    151 O22        -6.3000   -3.3260   -4.4270 o         1 MOL     -0.747428
    152 O23        -5.8510   -1.3090   -5.1680 o         1 MOL     -0.747428
    153 H65        -5.4190    0.3690   -0.7600 hn        1 MOL      0.139451
    154 H66        -7.3700   -1.7770   -0.1190 h1        1 MOL      0.069421
    155 H67        -5.9500   -3.0430   -1.6380 hc        1 MOL      0.009254
    156 H68        -4.9410   -1.6170   -1.7870 hc        1 MOL      0.009254
    157 H69        -6.8020   -0.4540   -2.9330 hc        1 MOL      0.060469
    158 H70        -7.8890   -1.8020   -2.8150 hc        1 MOL      0.060469
    159 N14        -4.4900   -1.5460    1.3290 n         1 MOL     -0.110253
    160 C53        -3.6460   -2.0380    2.4390 c3        1 MOL     -0.129650
    161 C54        -4.2820   -1.6620    3.7250 c         1 MOL      0.411432
    162 O24        -4.1500   -2.3550    4.7310 o         1 MOL     -0.569808
    163 C55        -2.2770   -1.3950    2.3040 c3        1 MOL      0.124005
    164 C56        -1.6380   -1.7290    0.9380 c3        1 MOL     -0.269182
    165 C57        -0.2680   -1.1120    0.7070 c         1 MOL      0.760346
    166 O25        -0.0890    0.0760    0.9440 o         1 MOL     -0.718552
    167 O26         0.6800   -1.7400    0.2050 o         1 MOL     -0.718552
    168 H71        -4.3310   -0.6440    0.9050 hn        1 MOL      0.278766
    169 H72        -3.6240   -3.1250    2.4320 h1        1 MOL      0.129668
    170 H73        -1.7470   -1.8200    3.1510 hc        1 MOL      0.038946
    171 H74        -2.3030   -0.3100    2.4170 hc        1 MOL      0.038946
    172 H75        -2.2530   -1.3330    0.1250 hc        1 MOL      0.049082
    173 H76        -1.6880   -2.8230    0.8790 hc        1 MOL      0.049082
    174 N15        -5.0960   -0.6190    3.7010 n         1 MOL      0.022198
    175 C58        -5.8480   -0.1530    4.8280 c3        1 MOL     -0.355038
    176 H77        -6.4950    0.6680    4.5170 h1        1 MOL      0.113106
    177 H78        -6.4570   -0.9680    5.2200 h1        1 MOL      0.113106
    178 H79        -5.1650    0.1960    5.6020 h1        1 MOL      0.113106
    179 H80        -5.0240   -0.0510    2.8720 hn        1 MOL      0.050851
    180 Ca1         2.5470    0.0930    0.2640 Ca        1 MOL      1.787207
    181 O27         2.0750    0.0290    2.9140 oh        1 MOL     -0.927188
    182 H81         2.2560    0.5190    3.7120 ho        1 MOL      0.445153
    183 H82         1.4030   -0.6080    3.1630 ho        1 MOL      0.445153
    184 O28         4.9880    0.4160    1.4680 oh        1 MOL     -0.927188
    185 H83         5.8950    0.1380    1.5900 ho        1 MOL      0.445153
    186 H84         4.7380    0.8070    2.2920 ho        1 MOL      0.445153
    187 O29         0.9820    1.1690   -1.8870 oh        1 MOL     -0.927188
    188 H85         1.5700    1.8390   -2.2490 ho        1 MOL      0.445153
    189 H86         1.0250    0.4500   -2.5130 ho        1 MOL      0.445153
@<TRIPOS>BOND
     1    1    2 1   
     2    1    4 1   
     3    1    5 1   
     4    1    6 1   
     5    2    3 2   
     6    2    7 1   
     7    7    8 1   
     8    7   15 1   
     9    8    9 1   
    10    8   11 1   
    11    8   16 1   
    12    9   10 2   
    13    9   19 1   
    14   11   12 1   
    15   11   17 1   
    16   11   18 1   
    17   12   13 1   
    18   12   14 1   
    19   19   20 1   
    20   19   27 1   
    21   20   21 1   
    22   20   23 1   
    23   20   28 1   
    24   21   22 2   
    25   21   38 1   
    26   23   24 1   
    27   23   25 1   
    28   23   29 1   
    29   24   26 1   
    30   24   30 1   
    31   24   31 1   
    32   25   32 1   
    33   25   33 1   
    34   25   34 1   
    35   26   35 1   
    36   26   36 1   
    37   26   37 1   
    38   38   39 1   
    39   38   46 1   
    40   39   40 1   
    41   39   42 1   
    42   39   47 1   
    43   40   41 2   
    44   40   50 1   
    45   42   43 1   
    46   42   48 1   
    47   42   49 1   
    48   43   44 1   
    49   43   45 1   
    50   50   51 1   
    51   50   54 1   
    52   51   52 1   
    53   51   55 1   
    54   51   56 1   
    55   52   53 2   
    56   52   57 1   
    57   57   58 1   
    58   57   65 1   
    59   58   59 1   
    60   58   61 1   
    61   58   66 1   
    62   59   60 2   
    63   59   69 1   
    64   61   62 1   
    65   61   67 1   
    66   61   68 1   
    67   62   63 1   
    68   62   64 1   
    69   69   70 1   
    70   69   73 1   
    71   70   71 1   
    72   70   74 1   
    73   70   75 1   
    74   71   72 2   
    75   71   76 1   
    76   76   77 1   
    77   76   85 1   
    78   77   78 1   
    79   77   80 1   
    80   77   86 1   
    81   78   79 2   
    82   78   93 1   
    83   80   81 1   
    84   80   87 1   
    85   80   88 1   
    86   81   82 1   
    87   81   89 1   
    88   81   90 1   
    89   82   83 1   
    90   82   84 2   
    91   83   91 1   
    92   83   92 1   
    93   93   94 1   
    94   93  100 1   
    95   94   95 1   
    96   94   97 1   
    97   94  101 1   
    98   95   96 2   
    99   95  109 1   
   100   97   98 1   
   101   97   99 1   
   102   97  102 1   
   103   98  103 1   
   104   98  104 1   
   105   98  105 1   
   106   99  106 1   
   107   99  107 1   
   108   99  108 1   
   109  109  110 1   
   110  109  117 1   
   111  110  111 1   
   112  110  113 1   
   113  110  118 1   
   114  111  112 2   
   115  111  123 1   
   116  113  114 1   
   117  113  119 1   
   118  113  120 1   
   119  114  115 1   
   120  114  116 2   
   121  115  121 1   
   122  115  122 1   
   123  123  124 1   
   124  123  135 1   
   125  124  125 1   
   126  124  127 1   
   127  124  136 1   
   128  125  126 2   
   129  125  144 1   
   130  127  128 1   
   131  127  137 1   
   132  127  138 1   
   133  128  129 ar  
   134  128  130 ar  
   135  129  131 ar  
   136  129  139 1   
   137  130  132 ar  
   138  130  140 1   
   139  131  133 ar  
   140  131  141 1   
   141  132  133 ar  
   142  132  142 1   
   143  133  134 1   
   144  134  143 1   
   145  144  145 1   
   146  144  153 1   
   147  145  146 1   
   148  145  148 1   
   149  145  154 1   
   150  146  147 2   
   151  146  159 1   
   152  148  149 1   
   153  148  155 1   
   154  148  156 1   
   155  149  150 1   
   156  149  157 1   
   157  149  158 1   
   158  150  151 1   
   159  150  152 1   
   160  159  160 1   
   161  159  168 1   
   162  160  161 1   
   163  160  163 1   
   164  160  169 1   
   165  161  162 2   
   166  161  174 1   
   167  163  164 1   
   168  163  170 1   
   169  163  171 1   
   170  164  165 1   
   171  164  172 1   
   172  164  173 1   
   173  165  166 1   
   174  165  167 1   
   175  174  175 1   
   176  174  179 1   
   177  175  176 1   
   178  175  177 1   
   179  175  178 1   
   180  181  182 1   
   181  181  183 1   
   182  184  185 1   
   183  184  186 1   
   184  187  188 1   
   185  187  189 1   
@<TRIPOS>SUBSTRUCTURE
     1 MOL         1 TEMP              0 ****  ****    0 ROOT
