@<TRIPOS>MOLECULE
MOL
  189   185     1     0     0
SMALL
resp


@<TRIPOS>ATOM
      1 C1          0.1900    2.0570    5.5120 c3        1 MOL     -0.348022
      2 C2         -0.3270    1.6150    4.1390 c         1 MOL      0.620946
      3 O1          0.4660    1.6830    3.1450 o         1 MOL     -0.593589
      4 H1          1.2300    1.7520    5.6250 hc        1 MOL      0.087636
      5 H2          0.1190    3.1420    5.5960 hc        1 MOL      0.087636
      6 H3         -0.4110    1.5930    6.2940 hc        1 MOL      0.087636
      7 N1         -1.5760    1.2120    3.9800 n         1 MOL     -0.442391
      8 C3         -2.0900    1.0500    2.6470 c3        1 MOL      0.356134
      9 C4         -2.2730    2.5310    2.0660 c         1 MOL      0.134304
     10 O2         -3.2360    3.2090    2.3720 o         1 MOL     -0.496399
     11 C5         -3.4290    0.2680    2.6520 c3        1 MOL     -0.187525
     12 C6         -4.0520    0.2120    1.2310 c         1 MOL      0.763638
     13 O3         -3.4480    0.5070    0.1610 o         1 MOL     -0.642983
     14 O4         -5.2700   -0.1360    1.2370 o         1 MOL     -0.642983
     15 H4         -2.1800    1.2450    4.7860 hn        1 MOL      0.293442
     16 H5         -1.4360    0.5280    1.9440 h1        1 MOL     -0.148078
     17 H6         -4.1250    0.7600    3.3270 hc        1 MOL      0.038098
     18 H7         -3.2960   -0.7570    2.9820 hc        1 MOL      0.038098
     19 N2         -1.3550    3.0420    1.3060 n         1 MOL     -0.040813
     20 C7         -1.2550    4.4860    0.9870 c3        1 MOL      0.040599
     21 C8         -2.2740    4.8820   -0.0770 c         1 MOL      0.384099
     22 O5         -2.6930    6.0280    0.0290 o         1 MOL     -0.548760
     23 C9          0.1850    4.9100    0.6470 c3        1 MOL      0.026718
     24 C10         1.2380    4.5910    1.6490 c3        1 MOL      0.055703
     25 C11         0.9140    4.9980    3.0890 c3        1 MOL     -0.251055
     26 C12         0.7070    6.5410    3.2100 c3        1 MOL      0.130992
     27 N3          0.5710    7.0160    4.5700 n4        1 MOL     -0.354444
     28 H8         -0.5640    2.4510    1.1450 hn        1 MOL      0.272924
     29 H9         -1.5600    5.0500    1.8710 h1        1 MOL      0.025805
     30 H10         0.1200    5.9880    0.5370 hc        1 MOL     -0.015607
     31 H11         0.5120    4.4650   -0.2870 hc        1 MOL     -0.015607
     32 H12         2.2530    4.9210    1.4580 hc        1 MOL      0.027245
     33 H13         1.3820    3.5100    1.6530 hc        1 MOL      0.027245
     34 H14         1.7420    4.6500    3.7030 hc        1 MOL      0.091793
     35 H15         0.0240    4.4990    3.4630 hc        1 MOL      0.091793
     36 H16        -0.1990    6.8720    2.7160 hx        1 MOL      0.060811
     37 H17         1.5850    6.9730    2.7250 hx        1 MOL      0.060811
     38 H18         1.4850    7.0730    4.9930 hn        1 MOL      0.320798
     39 H19         0.2370    7.9700    4.5950 hn        1 MOL      0.320798
     40 H20         0.0630    6.3430    5.1260 hn        1 MOL      0.320798
     41 N4         -2.4830    4.0190   -1.0760 n         1 MOL     -0.111085
     42 C13        -3.5250    4.3550   -2.1400 c3        1 MOL     -0.020358
     43 C14        -4.9570    3.8540   -1.8470 c         1 MOL      0.363599
     44 O6         -5.9360    4.2430   -2.5200 o         1 MOL     -0.490440
     45 C15        -3.0340    3.9200   -3.5540 c3        1 MOL     -0.056009
     46 C16        -2.4450    2.4550   -3.6810 c         1 MOL      0.748751
     47 O7         -1.5160    2.2140   -4.4660 o         1 MOL     -0.706322
     48 O8         -2.8230    1.5870   -2.8560 o         1 MOL     -0.706322
     49 H21        -1.9980    3.1300   -1.0400 hn        1 MOL      0.085052
     50 H22        -3.5900    5.4380   -2.1800 h1        1 MOL      0.083947
     51 H23        -2.1780    4.5700   -3.7430 hc        1 MOL      0.007665
     52 H24        -3.7550    4.1520   -4.3320 hc        1 MOL      0.007665
     53 N5         -5.1110    2.9670   -0.8490 n         1 MOL     -0.038900
     54 C17        -6.3980    2.4460   -0.3380 c3        1 MOL     -0.223279
     55 C18        -7.0520    1.5170   -1.3260 c         1 MOL      0.500181
     56 O9         -7.9460    1.9110   -2.1460 o         1 MOL     -0.533556
     57 H25        -4.2910    2.5620   -0.4100 hn        1 MOL      0.091347
     58 H26        -7.0390    3.2660   -0.0150 h1        1 MOL      0.106548
     59 H27        -6.1070    1.8820    0.5410 h1        1 MOL      0.106548
     60 N6         -6.4960    0.3150   -1.4020 n         1 MOL     -0.174692
     61 C19        -6.9020   -0.8550   -2.1650 c3        1 MOL      0.057884
     62 C20        -7.0520   -2.1610   -1.3150 c         1 MOL      0.401921
     63 O10        -7.6450   -3.2420   -1.6690 o         1 MOL     -0.532764
     64 C21        -6.0630   -1.1810   -3.3590 c3        1 MOL     -0.136617
     65 C22        -4.5730   -1.5150   -3.0160 c         1 MOL      0.711750
     66 O11        -4.2100   -1.9080   -1.8780 o         1 MOL     -0.690937
     67 O12        -3.6970   -1.3030   -3.8980 o         1 MOL     -0.690937
     68 H28        -5.7810    0.0660   -0.7340 hn        1 MOL     -0.042115
     69 H29        -7.9190   -0.6440   -2.4910 h1        1 MOL      0.065431
     70 H30        -6.0710   -0.3580   -4.0710 hc        1 MOL      0.058602
     71 H31        -6.5220   -2.0220   -3.8800 hc        1 MOL      0.058602
     72 N7         -6.8030   -2.0810    0.0240 n         1 MOL     -0.319853
     73 C23        -6.9720   -3.2290    0.9460 c3        1 MOL      0.014164
     74 C24        -5.7720   -4.0840    1.2820 c         1 MOL      0.418210
     75 O13        -5.7930   -5.0980    2.0060 o         1 MOL     -0.559156
     76 H32        -6.2600   -1.2790    0.3140 hn        1 MOL      0.266650
     77 H33        -7.8480   -3.8070    0.6720 h1        1 MOL      0.067549
     78 H34        -7.3260   -2.7770    1.8770 h1        1 MOL      0.067549
     79 N8         -4.6400   -3.5930    0.7740 n         1 MOL     -0.060344
     80 C25        -3.3190   -4.2050    0.9420 c3        1 MOL     -0.331075
     81 C26        -2.2010   -3.2090    1.0950 c         1 MOL      0.699293
     82 O14        -2.2040   -2.1480    0.4320 o         1 MOL     -0.686806
     83 C27        -2.8890   -4.9900   -0.3000 c3        1 MOL      0.563624
     84 C28        -3.4560   -6.4590   -0.2550 c3        1 MOL     -0.443010
     85 O15        -3.4140   -4.3770   -1.5100 oh        1 MOL     -0.669967
     86 H35        -4.8030   -2.7290    0.2780 hn        1 MOL      0.121178
     87 H36        -3.2730   -4.9080    1.7770 h1        1 MOL      0.137418
     88 H37        -1.8020   -5.0830   -0.3670 h1        1 MOL     -0.025779
     89 H38        -3.9030   -3.5670   -1.3070 ho        1 MOL      0.429043
     90 H39        -3.2180   -6.7980    0.7620 hc        1 MOL      0.107925
     91 H40        -4.5330   -6.5160   -0.4150 hc        1 MOL      0.107925
     92 H41        -2.9150   -7.1220   -0.9300 hc        1 MOL      0.107925
     93 N9         -1.1530   -3.5520    1.8460 n         1 MOL     -0.621341
     94 C29         0.1210   -2.8060    2.0570 c3        1 MOL      0.079193
     95 C30         1.1710   -3.5630    1.2320 c         1 MOL      0.415730
     96 O16         1.2250   -4.8720    1.2320 o         1 MOL     -0.566674
     97 C31         0.5340   -2.8410    3.5610 c3        1 MOL      0.226887
     98 C32        -0.6370   -2.6180    4.4130 c3        1 MOL      0.215282
     99 C33         1.6330   -1.8040    3.8380 c3        1 MOL     -0.297502
    100 C34        -0.4310   -2.6110    5.9560 c3        1 MOL     -0.246488
    101 H42        -1.1800   -4.4950    2.2210 hn        1 MOL      0.289469
    102 H43        -0.0140   -1.7780    1.7460 h1        1 MOL      0.292988
    103 H44         0.9850   -3.8040    3.7700 hc        1 MOL     -0.047579
    104 H45        -1.3580   -3.4020    4.2400 hc        1 MOL     -0.065644
    105 H46        -1.0630   -1.6650    4.0960 hc        1 MOL     -0.065644
    106 H47         1.3040   -0.8180    3.5210 hc        1 MOL      0.048479
    107 H48         1.9140   -1.8750    4.8910 hc        1 MOL      0.048479
    108 H49         2.4950   -2.0770    3.2370 hc        1 MOL      0.048479
    109 H50        -1.3570   -2.2530    6.4140 hc        1 MOL      0.052360
    110 H51        -0.2590   -3.6450    6.2500 hc        1 MOL      0.052360
    111 H52         0.3440   -1.9690    6.3530 hc        1 MOL      0.052360
    112 N10         2.0500   -2.8580    0.5960 n         1 MOL     -0.057032
    113 C35         3.1740   -3.3380   -0.1820 c3        1 MOL     -0.217948
    114 C36         4.4860   -2.6860    0.2930 c         1 MOL      0.531430
    115 O17         4.4990   -1.6990    0.9900 o         1 MOL     -0.349706
    116 C37         2.8070   -3.2250   -1.7180 c3        1 MOL      0.207922
    117 C38         2.6550   -1.7780   -2.3200 c3        1 MOL      0.118713
    118 O18         3.8480   -3.8040   -2.5140 oh        1 MOL     -0.618055
    119 H53         2.0030   -1.8490    0.5500 hn        1 MOL     -0.030642
    120 H54         3.2220   -4.3750    0.1540 h1        1 MOL      0.093665
    121 H55         1.8870   -3.7270   -2.0080 h1        1 MOL      0.079304
    122 H56         4.0890   -4.6500   -2.1380 ho        1 MOL      0.374187
    123 H57         3.3810   -1.0690   -1.9180 hc        1 MOL     -0.012236
    124 H58         2.8670   -1.8260   -3.3860 hc        1 MOL     -0.012236
    125 H59         1.6530   -1.3820   -2.1190 hc        1 MOL     -0.012236
    126 N11         5.6090   -3.3060   -0.1130 n         1 MOL     -0.349330
    127 C39         6.9490   -2.9430    0.3670 c3        1 MOL     -0.234079
    128 C40         7.2630   -1.4600    0.2500 c         1 MOL      0.362743
    129 O19         7.7000   -0.9180    1.2220 o         1 MOL     -0.475230
    130 C41         8.0050   -3.7060   -0.3440 c3        1 MOL      0.347873
    131 C42         8.1180   -5.1720    0.1160 c3        1 MOL     -0.382834
    132 O20         7.7440   -3.7260   -1.6950 oh        1 MOL     -0.606841
    133 H60         5.4980   -4.1330   -0.6830 hn        1 MOL      0.288526
    134 H61         6.9390   -3.2930    1.3980 h1        1 MOL      0.176676
    135 H62         9.0120   -3.3010   -0.1820 h1        1 MOL      0.039438
    136 H63         8.5640   -3.9180   -2.1400 ho        1 MOL      0.405655
    137 H64         7.2840   -5.8420   -0.0970 hc        1 MOL      0.105489
    138 H65         8.9220   -5.5870   -0.4930 hc        1 MOL      0.105489
    139 H66         8.2940   -5.1590    1.1870 hc        1 MOL      0.105489
    140 N12         6.9120   -0.7600   -0.8110 n         1 MOL     -0.127251
    141 C43         7.1230    0.6970   -1.0420 c3        1 MOL     -0.201711
    142 C44         6.2040    1.5910   -0.1520 c         1 MOL      0.396964
    143 O21         6.6060    2.6340    0.3690 o         1 MOL     -0.507160
    144 C45         6.9000    0.9480   -2.4900 c3        1 MOL      0.031778
    145 C46         7.5170    2.3730   -2.8090 c3        1 MOL     -0.063977
    146 C47         7.1810    2.7820   -4.2540 c3        1 MOL     -0.159910
    147 C48         7.8640    1.9660   -5.3490 c3        1 MOL      0.037807
    148 N13         7.9360    2.6750   -6.7170 n4        1 MOL     -0.415927
    149 H67         6.6500   -1.3160   -1.6150 hn        1 MOL      0.148918
    150 H68         8.1560    0.8390   -0.7590 h1        1 MOL      0.144133
    151 H69         5.8270    0.9810   -2.6770 hc        1 MOL      0.015273
    152 H70         7.4610    0.2890   -3.1440 hc        1 MOL      0.015273
    153 H71         8.6000    2.2750   -2.7220 hc        1 MOL      0.060152
    154 H72         7.1450    3.1250   -2.1180 hc        1 MOL      0.060152
    155 H73         7.3880    3.8510   -4.3220 hc        1 MOL      0.089917
    156 H74         6.1180    2.7160   -4.4920 hc        1 MOL      0.089917
    157 H75         7.4580    0.9560   -5.4480 hx        1 MOL      0.100566
    158 H76         8.8560    1.6570   -5.0260 hx        1 MOL      0.100566
    159 H77         8.6470    2.3000   -7.3300 hn        1 MOL      0.323849
    160 H78         7.0390    2.6070   -7.1770 hn        1 MOL      0.323849
    161 H79         8.1440    3.6500   -6.5750 hn        1 MOL      0.323849
    162 N14         4.9460    1.2440    0.0140 n         1 MOL     -0.034347
    163 C49         4.0210    1.9860    0.8710 c3        1 MOL     -0.183320
    164 C50         4.3620    1.8560    2.3980 c         1 MOL      0.430588
    165 O22         4.4630    2.9090    3.1090 o         1 MOL     -0.546655
    166 C51         2.6760    1.2800    0.6070 c3        1 MOL     -0.066018
    167 C52         1.9700    1.5780   -0.7020 c3        1 MOL     -0.298615
    168 C53         0.5500    0.9780   -0.7260 c         1 MOL      0.827344
    169 O23         0.3300   -0.1500   -0.3110 o         1 MOL     -0.702516
    170 O24        -0.3650    1.7180   -1.0500 o         1 MOL     -0.702516
    171 H80         4.7060    0.3310   -0.3460 hn        1 MOL      0.212980
    172 H81         3.8200    3.0080    0.5470 h1        1 MOL      0.129961
    173 H82         2.0410    1.6710    1.4060 hc        1 MOL      0.027969
    174 H83         2.8230    0.2010    0.7640 hc        1 MOL      0.027969
    175 H84         2.4400    1.1670   -1.5910 hc        1 MOL      0.051424
    176 H85         1.9110    2.6670   -0.7830 hc        1 MOL      0.051424
    177 N15         4.7680    0.6770    2.7550 n         1 MOL     -0.068875
    178 C54         5.3880    0.3890    4.0660 c3        1 MOL     -0.115285
    179 H86         6.2740   -0.2300    3.9210 h1        1 MOL      0.067926
    180 H87         5.6730    1.3230    4.5470 h1        1 MOL      0.067926
    181 H88         4.6750   -0.1420    4.6970 h1        1 MOL      0.067926
    182 H89         4.7880   -0.1020    2.1150 hn        1 MOL      0.121675
    183 Ca1        -2.0340   -0.4620   -1.5870 Ca        1 MOL      1.752925
    184 O25        -0.3670    0.0060   -3.7740 oh        1 MOL     -0.905442
    185 H90         0.2790   -0.0960   -4.4730 ho        1 MOL      0.414178
    186 H91        -0.9120    0.7450   -4.0610 ho        1 MOL      0.414178
    187 O26        -1.0300   -3.0120   -2.2800 oh        1 MOL     -0.905442
    188 H92        -0.5450   -3.3790   -3.0130 ho        1 MOL      0.414178
    189 H93        -1.7420   -3.6340   -2.1260 ho        1 MOL      0.414178
@<TRIPOS>BOND
     1    1    2 1   
     2    1    4 1   
     3    1    5 1   
     4    1    6 1   
     5    2    3 2   
     6    2    7 1   
     7    7    8 1   
     8    7   15 1   
     9    8    9 1   
    10    8   11 1   
    11    8   16 1   
    12    9   10 2   
    13    9   19 1   
    14   11   12 1   
    15   11   17 1   
    16   11   18 1   
    17   12   13 1   
    18   12   14 1   
    19   19   20 1   
    20   19   28 1   
    21   20   21 1   
    22   20   23 1   
    23   20   29 1   
    24   21   22 2   
    25   21   41 1   
    26   23   24 1   
    27   23   30 1   
    28   23   31 1   
    29   24   25 1   
    30   24   32 1   
    31   24   33 1   
    32   25   26 1   
    33   25   34 1   
    34   25   35 1   
    35   26   27 1   
    36   26   36 1   
    37   26   37 1   
    38   27   38 1   
    39   27   39 1   
    40   27   40 1   
    41   41   42 1   
    42   41   49 1   
    43   42   43 1   
    44   42   45 1   
    45   42   50 1   
    46   43   44 2   
    47   43   53 1   
    48   45   46 1   
    49   45   51 1   
    50   45   52 1   
    51   46   47 1   
    52   46   48 1   
    53   53   54 1   
    54   53   57 1   
    55   54   55 1   
    56   54   58 1   
    57   54   59 1   
    58   55   56 2   
    59   55   60 1   
    60   60   61 1   
    61   60   68 1   
    62   61   62 1   
    63   61   64 1   
    64   61   69 1   
    65   62   63 2   
    66   62   72 1   
    67   64   65 1   
    68   64   70 1   
    69   64   71 1   
    70   65   66 1   
    71   65   67 1   
    72   72   73 1   
    73   72   76 1   
    74   73   74 1   
    75   73   77 1   
    76   73   78 1   
    77   74   75 2   
    78   74   79 1   
    79   79   80 1   
    80   79   86 1   
    81   80   81 1   
    82   80   83 1   
    83   80   87 1   
    84   81   82 2   
    85   81   93 1   
    86   83   84 1   
    87   83   85 1   
    88   83   88 1   
    89   84   90 1   
    90   84   91 1   
    91   84   92 1   
    92   85   89 1   
    93   93   94 1   
    94   93  101 1   
    95   94   95 1   
    96   94   97 1   
    97   94  102 1   
    98   95   96 2   
    99   95  112 1   
   100   97   98 1   
   101   97   99 1   
   102   97  103 1   
   103   98  100 1   
   104   98  104 1   
   105   98  105 1   
   106   99  106 1   
   107   99  107 1   
   108   99  108 1   
   109  100  109 1   
   110  100  110 1   
   111  100  111 1   
   112  112  113 1   
   113  112  119 1   
   114  113  114 1   
   115  113  116 1   
   116  113  120 1   
   117  114  115 2   
   118  114  126 1   
   119  116  117 1   
   120  116  118 1   
   121  116  121 1   
   122  117  123 1   
   123  117  124 1   
   124  117  125 1   
   125  118  122 1   
   126  126  127 1   
   127  126  133 1   
   128  127  128 1   
   129  127  130 1   
   130  127  134 1   
   131  128  129 2   
   132  128  140 1   
   133  130  131 1   
   134  130  132 1   
   135  130  135 1   
   136  131  137 1   
   137  131  138 1   
   138  131  139 1   
   139  132  136 1   
   140  140  141 1   
   141  140  149 1   
   142  141  142 1   
   143  141  144 1   
   144  141  150 1   
   145  142  143 2   
   146  142  162 1   
   147  144  145 1   
   148  144  151 1   
   149  144  152 1   
   150  145  146 1   
   151  145  153 1   
   152  145  154 1   
   153  146  147 1   
   154  146  155 1   
   155  146  156 1   
   156  147  148 1   
   157  147  157 1   
   158  147  158 1   
   159  148  159 1   
   160  148  160 1   
   161  148  161 1   
   162  162  163 1   
   163  162  171 1   
   164  163  164 1   
   165  163  166 1   
   166  163  172 1   
   167  164  165 2   
   168  164  177 1   
   169  166  167 1   
   170  166  173 1   
   171  166  174 1   
   172  167  168 1   
   173  167  175 1   
   174  167  176 1   
   175  168  169 1   
   176  168  170 1   
   177  177  178 1   
   178  177  182 1   
   179  178  179 1   
   180  178  180 1   
   181  178  181 1   
   182  184  185 1   
   183  184  186 1   
   184  187  188 1   
   185  187  189 1   
@<TRIPOS>SUBSTRUCTURE
     1 MOL         1 TEMP              0 ****  ****    0 ROOT
