@<TRIPOS>MOLECULE
MOL
  176   174     1     0     0
SMALL
resp


@<TRIPOS>ATOM
      1 C1          2.2340    2.0900    5.7830 c3        1 MOL     -0.361244
      2 C2          1.5330    2.0940    4.3680 c         1 MOL      0.856214
      3 O1          2.1990    2.1460    3.3960 o         1 MOL     -0.658783
      4 H1          1.4980    1.8540    6.5510 hc        1 MOL      0.083358
      5 H2          3.0240    1.3400    5.7960 hc        1 MOL      0.083358
      6 H3          2.6620    3.0720    5.9800 hc        1 MOL      0.083358
      7 N1          0.2330    2.0690    4.3450 n         1 MOL     -0.688744
      8 C3         -0.5790    2.1810    3.0940 c3        1 MOL      0.201173
      9 C4         -0.6750    3.5500    2.5170 c         1 MOL      0.474594
     10 O2         -0.8980    4.5130    3.2080 o         1 MOL     -0.558292
     11 C5         -1.9870    1.5830    3.4330 c3        1 MOL     -0.070328
     12 C6         -2.8330    1.3520    2.1860 c         1 MOL      0.713476
     13 O3         -4.0640    1.2980    2.3380 o         1 MOL     -0.722197
     14 O4         -2.1680    1.0410    1.1730 o         1 MOL     -0.722197
     15 H4         -0.2310    2.0390    5.2420 hn        1 MOL      0.330371
     16 H5         -0.2380    1.4900    2.3280 h1        1 MOL      0.079350
     17 H6         -2.5180    2.2720    4.0890 hc        1 MOL      0.005885
     18 H7         -1.7600    0.6210    3.8930 hc        1 MOL      0.005885
     19 N2         -0.2760    3.6910    1.2690 n         1 MOL     -0.104334
     20 C7          0.0120    4.9610    0.5320 c3        1 MOL     -0.106514
     21 C8         -1.1440    5.2730   -0.4100 c         1 MOL      0.512706
     22 O5         -1.7110    6.3670   -0.3560 o         1 MOL     -0.539868
     23 C9          1.3750    4.7440   -0.1630 c3        1 MOL      0.124774
     24 C10         2.1520    5.9960   -0.6850 c3        1 MOL     -0.400618
     25 C11         3.5640    5.5420   -1.2430 c3        1 MOL     -0.027940
     26 C12         4.2960    6.8510   -1.5040 c3        1 MOL      0.185815
     27 N3          5.5820    6.7080   -2.2800 n4        1 MOL     -0.501192
     28 H8          0.0920    2.8650    0.8130 hn        1 MOL     -0.000568
     29 H9          0.1320    5.7940    1.2280 h1        1 MOL      0.093566
     30 H10         1.2140    4.1010   -1.0170 hc        1 MOL      0.100913
     31 H11         2.0610    4.3380    0.5860 hc        1 MOL      0.100913
     32 H12         2.2540    6.6740    0.1690 hc        1 MOL      0.116257
     33 H13         1.5760    6.5100   -1.4610 hc        1 MOL      0.116257
     34 H14         3.5070    4.9610   -2.1690 hc        1 MOL      0.044617
     35 H15         4.0770    4.9260   -0.5070 hc        1 MOL      0.044617
     36 H16         4.4630    7.4020   -0.5820 hx        1 MOL      0.056858
     37 H17         3.6040    7.4570   -2.0820 hx        1 MOL      0.056858
     38 H18         6.3940    6.9410   -1.7290 hn        1 MOL      0.361894
     39 H19         5.7350    5.7250   -2.4340 hn        1 MOL      0.361894
     40 H20         5.4180    7.1590   -3.1670 hn        1 MOL      0.361894
     41 N4         -1.5780    4.2690   -1.2000 n         1 MOL     -0.523029
     42 C13        -2.6590    4.3710   -2.2110 c3        1 MOL      0.141764
     43 C14        -4.1120    4.3130   -1.6930 c         1 MOL      0.394391
     44 O6         -5.0630    4.6920   -2.4320 o         1 MOL     -0.526589
     45 C15        -2.3430    3.3980   -3.2890 c3        1 MOL     -0.122801
     46 C16        -2.2350    1.9980   -2.8370 c         1 MOL      0.618519
     47 O7         -3.0170    1.6330   -1.9150 o         1 MOL     -0.703158
     48 O8         -1.3040    1.2510   -3.3220 o         1 MOL     -0.703158
     49 H21        -1.0840    3.4060   -0.9950 hn        1 MOL      0.374842
     50 H22        -2.6730    5.3540   -2.6740 h1        1 MOL      0.072000
     51 H23        -1.4300    3.7400   -3.7760 hc        1 MOL      0.035541
     52 H24        -3.1130    3.6740   -4.0030 hc        1 MOL      0.035541
     53 N5         -4.3020    3.8170   -0.4560 n         1 MOL     -0.069216
     54 C17        -5.5800    3.5510    0.1860 c3        1 MOL     -0.521501
     55 C18        -6.4270    2.4240   -0.3180 c         1 MOL      0.643664
     56 O9         -7.6380    2.3450    0.0030 o         1 MOL     -0.562241
     57 H25        -3.4650    3.4130   -0.0600 hn        1 MOL      0.156776
     58 H26        -6.2260    4.4220    0.0770 h1        1 MOL      0.202469
     59 H27        -5.4170    3.3940    1.2580 h1        1 MOL      0.202469
     60 N6         -5.6920    1.4720   -0.9810 n         1 MOL     -0.397119
     61 C19        -6.2920    0.1430   -1.2840 c3        1 MOL      0.122851
     62 C20        -6.4670   -0.7320   -0.0530 c         1 MOL      0.340731
     63 O10        -7.2170   -1.6900   -0.1490 o         1 MOL     -0.473818
     64 C21        -5.7680   -0.5710   -2.5380 c3        1 MOL     -0.307004
     65 C22        -4.3210   -0.9890   -2.4770 c         1 MOL      0.814763
     66 N7         -3.6570   -1.3140   -3.5790 n         1 MOL     -0.711491
     67 O11        -3.6810   -1.0310   -1.4490 o         1 MOL     -0.706221
     68 H28        -4.7210    1.6650   -1.1620 hn        1 MOL      0.265444
     69 H29        -7.3290    0.4210   -1.4950 h1        1 MOL      0.062433
     70 H30        -5.9120    0.1200   -3.3730 hc        1 MOL      0.104569
     71 H31        -6.3630   -1.4650   -2.7210 hc        1 MOL      0.104569
     72 H32        -4.1430   -1.4340   -4.4530 hn        1 MOL      0.312552
     73 H33        -2.7320   -1.6920   -3.4130 hn        1 MOL      0.312552
     74 N8         -5.9790   -0.3060    1.0850 n         1 MOL     -0.155380
     75 C23        -6.2560   -0.9930    2.3560 c3        1 MOL     -0.071933
     76 C24        -5.3460   -2.1880    2.6080 c         1 MOL      0.415146
     77 O12        -5.7390   -3.0510    3.3570 o         1 MOL     -0.534468
     78 H34        -5.5020    0.5710    1.2280 hn        1 MOL      0.241188
     79 H35        -7.2650   -1.3950    2.2930 h1        1 MOL      0.087814
     80 H36        -6.3970   -0.2720    3.1570 h1        1 MOL      0.087814
     81 N9         -4.2100   -2.3360    1.9090 n         1 MOL     -0.026392
     82 C25        -3.2460   -3.4290    2.0070 c3        1 MOL     -0.032037
     83 C26        -1.8140   -2.9390    1.5760 c         1 MOL      0.440003
     84 O13        -1.7010   -2.0370    0.7320 o         1 MOL     -0.619947
     85 C27        -3.5890   -4.6810    1.2470 c3        1 MOL      0.030508
     86 C28        -3.9160   -4.5190   -0.2600 ca        1 MOL     -0.120618
     87 C29        -2.8920   -4.6810   -1.2320 ca        1 MOL     -0.014037
     88 C30        -5.3130   -4.4140   -0.5990 ca        1 MOL     -0.014037
     89 C31        -3.2420   -4.8750   -2.5580 ca        1 MOL     -0.315782
     90 C32        -5.6240   -4.5360   -1.9650 ca        1 MOL     -0.315782
     91 C33        -4.6080   -4.8200   -2.9370 ca        1 MOL      0.345972
     92 O14        -4.8850   -5.0040   -4.2890 oh        1 MOL     -0.490623
     93 H37        -3.9950   -1.6680    1.1860 hn        1 MOL      0.104665
     94 H38        -3.2570   -3.6430    3.0710 h1        1 MOL      0.032157
     95 H39        -4.4130   -5.1590    1.7560 hc        1 MOL      0.030154
     96 H40        -2.8020   -5.4350    1.3300 hc        1 MOL      0.030154
     97 H41        -1.8500   -4.8650   -1.0060 ha        1 MOL      0.126488
     98 H42        -6.1200   -4.1940    0.0880 ha        1 MOL      0.126488
     99 H43        -2.4800   -5.0880   -3.2920 ha        1 MOL      0.141071
    100 H44        -6.6350   -4.3160   -2.2650 ha        1 MOL      0.141071
    101 H45        -4.1480   -5.0920   -4.8940 ho        1 MOL      0.342299
    102 N10        -0.7540   -3.3850    2.2050 n         1 MOL     -0.339520
    103 C34         0.6230   -2.8170    2.0420 c3        1 MOL     -0.058667
    104 C35         1.2980   -3.4540    0.8400 c         1 MOL      0.484327
    105 O15         1.0840   -4.6630    0.6670 o         1 MOL     -0.571380
    106 C36         1.4030   -2.9730    3.3780 c3        1 MOL      0.370923
    107 C37         0.6820   -2.4750    4.6390 c3        1 MOL      0.192495
    108 C38         2.8200   -2.3860    3.2260 c3        1 MOL     -0.493410
    109 C39         1.3380   -2.8820    5.9350 c3        1 MOL     -0.286455
    110 H46        -0.8430   -4.1980    2.7920 hn        1 MOL      0.285911
    111 H47         0.5130   -1.7490    1.8600 h1        1 MOL      0.099269
    112 H48         1.5780   -4.0270    3.6150 hc        1 MOL     -0.076336
    113 H49        -0.3240   -2.8690    4.5650 hc        1 MOL     -0.074832
    114 H50         0.7330   -1.3990    4.4720 hc        1 MOL     -0.074832
    115 H51         2.7330   -1.3090    3.1160 hc        1 MOL      0.105051
    116 H52         3.4030   -2.5960    4.1240 hc        1 MOL      0.105051
    117 H53         3.4420   -2.9030    2.4880 hc        1 MOL      0.105051
    118 H54         2.2990   -2.3960    6.1110 hc        1 MOL      0.070911
    119 H55         0.6350   -2.7010    6.7510 hc        1 MOL      0.070911
    120 H56         1.5490   -3.9470    5.9320 hc        1 MOL      0.070911
    121 N11         2.1290   -2.6910    0.0800 n         1 MOL     -0.306731
    122 C40         3.0810   -3.3030   -0.8840 c3        1 MOL      0.096209
    123 C41         4.5880   -3.2450   -0.6120 c         1 MOL      0.468792
    124 O16         5.0860   -2.5180    0.2520 o         1 MOL     -0.416216
    125 C42         2.8910   -2.7300   -2.2830 c3        1 MOL     -0.159691
    126 O17         3.2280   -1.3370   -2.2920 oh        1 MOL     -0.392362
    127 H57         2.2470   -1.7150    0.3340 hn        1 MOL      0.372861
    128 H58         2.8780   -4.3740   -0.8850 h1        1 MOL      0.059011
    129 H59         1.8530   -2.7940   -2.6000 h1        1 MOL      0.063365
    130 H60         3.5600   -3.2350   -2.9880 h1        1 MOL      0.063365
    131 H61         3.0870   -0.9220   -3.1410 ho        1 MOL      0.388383
    132 N12         5.3580   -4.0670   -1.3340 n         1 MOL     -0.414471
    133 C43         6.8130   -4.0790   -1.2690 c3        1 MOL      0.074890
    134 C44         7.3600   -2.6530   -1.3440 c         1 MOL      0.411641
    135 O18         8.0550   -2.1460   -0.4750 o         1 MOL     -0.456657
    136 C45         7.4380   -4.9340   -2.3360 c3        1 MOL     -0.253541
    137 H62         4.8980   -4.6640   -2.0020 hn        1 MOL      0.275725
    138 H63         7.1740   -4.5640   -0.3670 h1        1 MOL      0.101889
    139 H64         7.1980   -4.6080   -3.3430 hc        1 MOL      0.086291
    140 H65         8.5220   -5.0230   -2.2550 hc        1 MOL      0.086291
    141 H66         7.1680   -5.9830   -2.1750 hc        1 MOL      0.086291
    142 N13         6.9650   -1.9310   -2.4330 n         1 MOL     -0.376406
    143 C46         7.2510   -0.5150   -2.7050 c3        1 MOL      0.046530
    144 C47         6.8630    0.4560   -1.6140 c         1 MOL      0.404432
    145 O19         7.4990    1.4680   -1.3660 o         1 MOL     -0.548839
    146 C48         6.4760   -0.0450   -3.9830 c3        1 MOL     -0.335161
    147 H67         6.4660   -2.4310   -3.1520 hn        1 MOL      0.289839
    148 H68         8.3150   -0.3300   -2.8250 h1        1 MOL      0.106382
    149 H69         6.6480   -0.6220   -4.8870 hc        1 MOL      0.095457
    150 H70         5.4230   -0.1490   -3.7330 hc        1 MOL      0.095457
    151 H71         6.7350    0.9900   -4.2340 hc        1 MOL      0.095457
    152 N14         5.8250    0.1470   -0.7980 n         1 MOL      0.025671
    153 C49         5.2740    1.0440    0.2590 c3        1 MOL     -0.147401
    154 C50         5.9880    0.8250    1.6100 c         1 MOL      0.519191
    155 O20         6.2100    1.7700    2.3580 o         1 MOL     -0.549497
    156 C51         3.8080    0.7640    0.3950 c3        1 MOL      0.267847
    157 C52         2.9310    1.4040   -0.7680 c3        1 MOL     -0.140651
    158 C53         1.4150    1.0030   -0.5240 c         1 MOL      0.905573
    159 O21         0.4510    1.7500   -0.7460 o         1 MOL     -0.887416
    160 O22         1.2090   -0.2040   -0.2990 o         1 MOL     -0.887416
    161 H72         5.2720   -0.6390   -1.1070 hn        1 MOL     -0.034133
    162 H73         5.3410    2.1090    0.0240 h1        1 MOL      0.054473
    163 H74         3.4500    1.2640    1.2940 hc        1 MOL     -0.042458
    164 H75         3.6610   -0.3090    0.5320 hc        1 MOL     -0.042458
    165 H76         3.1750    1.0220   -1.7490 hc        1 MOL     -0.041508
    166 H77         3.0260    2.4960   -0.6890 hc        1 MOL     -0.041508
    167 N15         6.4290   -0.4130    1.7920 n         1 MOL     -0.176746
    168 C54         7.2530   -0.8730    2.9090 c3        1 MOL     -0.281065
    169 H78         6.6220   -1.0260    3.7860 h1        1 MOL      0.111586
    170 H79         7.7370   -1.8110    2.6420 h1        1 MOL      0.111586
    171 H80         8.0110   -0.1230    3.1340 h1        1 MOL      0.111586
    172 H81         6.3600   -1.1230    1.0690 hn        1 MOL      0.186507
    173 Ca1        -1.3390   -0.1560   -1.0290 Ca        1 MOL      1.790933
    174 O23        -0.8570   -2.1260   -2.8490 oh        1 MOL     -0.826300
    175 H82        -0.7070   -3.0290   -2.5690 ho        1 MOL      0.411329
    176 H83        -0.6440   -2.1200   -3.7760 ho        1 MOL      0.411329
@<TRIPOS>BOND
     1    1    2 1   
     2    1    4 1   
     3    1    5 1   
     4    1    6 1   
     5    2    3 2   
     6    2    7 1   
     7    7    8 1   
     8    7   15 1   
     9    8    9 1   
    10    8   11 1   
    11    8   16 1   
    12    9   10 2   
    13    9   19 1   
    14   11   12 1   
    15   11   17 1   
    16   11   18 1   
    17   12   13 1   
    18   12   14 1   
    19   19   20 1   
    20   19   28 1   
    21   20   21 1   
    22   20   23 1   
    23   20   29 1   
    24   21   22 2   
    25   21   41 1   
    26   23   24 1   
    27   23   30 1   
    28   23   31 1   
    29   24   25 1   
    30   24   32 1   
    31   24   33 1   
    32   25   26 1   
    33   25   34 1   
    34   25   35 1   
    35   26   27 1   
    36   26   36 1   
    37   26   37 1   
    38   27   38 1   
    39   27   39 1   
    40   27   40 1   
    41   41   42 1   
    42   41   49 1   
    43   42   43 1   
    44   42   45 1   
    45   42   50 1   
    46   43   44 2   
    47   43   53 1   
    48   45   46 1   
    49   45   51 1   
    50   45   52 1   
    51   46   47 1   
    52   46   48 1   
    53   53   54 1   
    54   53   57 1   
    55   54   55 1   
    56   54   58 1   
    57   54   59 1   
    58   55   56 2   
    59   55   60 1   
    60   60   61 1   
    61   60   68 1   
    62   61   62 1   
    63   61   64 1   
    64   61   69 1   
    65   62   63 2   
    66   62   74 1   
    67   64   65 1   
    68   64   70 1   
    69   64   71 1   
    70   65   66 1   
    71   65   67 2   
    72   66   72 1   
    73   66   73 1   
    74   74   75 1   
    75   74   78 1   
    76   75   76 1   
    77   75   79 1   
    78   75   80 1   
    79   76   77 2   
    80   76   81 1   
    81   81   82 1   
    82   81   93 1   
    83   82   83 1   
    84   82   85 1   
    85   82   94 1   
    86   83   84 2   
    87   83  102 1   
    88   85   86 1   
    89   85   95 1   
    90   85   96 1   
    91   86   87 ar  
    92   86   88 ar  
    93   87   89 ar  
    94   87   97 1   
    95   88   90 ar  
    96   88   98 1   
    97   89   91 ar  
    98   89   99 1   
    99   90   91 ar  
   100   90  100 1   
   101   91   92 1   
   102   92  101 1   
   103  102  103 1   
   104  102  110 1   
   105  103  104 1   
   106  103  106 1   
   107  103  111 1   
   108  104  105 2   
   109  104  121 1   
   110  106  107 1   
   111  106  108 1   
   112  106  112 1   
   113  107  109 1   
   114  107  113 1   
   115  107  114 1   
   116  108  115 1   
   117  108  116 1   
   118  108  117 1   
   119  109  118 1   
   120  109  119 1   
   121  109  120 1   
   122  121  122 1   
   123  121  127 1   
   124  122  123 1   
   125  122  125 1   
   126  122  128 1   
   127  123  124 2   
   128  123  132 1   
   129  125  126 1   
   130  125  129 1   
   131  125  130 1   
   132  126  131 1   
   133  132  133 1   
   134  132  137 1   
   135  133  134 1   
   136  133  136 1   
   137  133  138 1   
   138  134  135 2   
   139  134  142 1   
   140  136  139 1   
   141  136  140 1   
   142  136  141 1   
   143  142  143 1   
   144  142  147 1   
   145  143  144 1   
   146  143  146 1   
   147  143  148 1   
   148  144  145 2   
   149  144  152 1   
   150  146  149 1   
   151  146  150 1   
   152  146  151 1   
   153  152  153 1   
   154  152  161 1   
   155  153  154 1   
   156  153  156 1   
   157  153  162 1   
   158  154  155 2   
   159  154  167 1   
   160  156  157 1   
   161  156  163 1   
   162  156  164 1   
   163  157  158 1   
   164  157  165 1   
   165  157  166 1   
   166  158  159 1   
   167  158  160 1   
   168  167  168 1   
   169  167  172 1   
   170  168  169 1   
   171  168  170 1   
   172  168  171 1   
   173  174  175 1   
   174  174  176 1   
@<TRIPOS>SUBSTRUCTURE
     1 MOL         1 TEMP              0 ****  ****    0 ROOT
