@<TRIPOS>MOLECULE
MOL
  189   185     1     0     0
SMALL
resp


@<TRIPOS>ATOM
      1 C1         -0.3550    5.0810    5.3560 c3        1 MOL     -0.346167
      2 C2         -0.8360    4.1820    4.2580 c         1 MOL      0.770811
      3 O1         -1.0440    2.9720    4.4180 o         1 MOL     -0.622439
      4 H1          0.6590    4.7990    5.6380 hc        1 MOL      0.086925
      5 H2         -0.3610    6.1140    5.0080 hc        1 MOL      0.086925
      6 H3         -1.0130    4.9840    6.2200 hc        1 MOL      0.086925
      7 N1         -1.0670    4.8230    3.0770 n         1 MOL     -0.662999
      8 C3         -1.7510    4.2800    1.9330 c3        1 MOL      0.247602
      9 C4         -1.4330    5.0570    0.6740 c         1 MOL      0.592879
     10 O2         -1.0280    6.1980    0.7470 o         1 MOL     -0.610527
     11 C5         -3.2660    4.3130    2.2150 c3        1 MOL     -0.307306
     12 C6         -4.1190    3.4830    1.2820 c         1 MOL      0.705603
     13 O3         -5.3870    3.6300    1.2610 o         1 MOL     -0.696343
     14 O4         -3.6060    2.6770    0.4920 o         1 MOL     -0.696343
     15 H4         -1.1080    5.8280    3.1110 hn        1 MOL      0.325165
     16 H5         -1.3530    3.2870    1.7250 h1        1 MOL      0.022429
     17 H6         -3.5950    5.3600    2.2390 hc        1 MOL      0.068909
     18 H7         -3.4820    3.9380    3.2150 hc        1 MOL      0.068909
     19 N2         -1.5430    4.4600   -0.5110 n         1 MOL     -0.362001
     20 C7         -1.1710    5.0110   -1.7860 c3        1 MOL     -0.032718
     21 C8         -2.1790    4.6340   -2.9380 c         1 MOL      0.475238
     22 O5         -2.4290    5.3520   -3.8780 o         1 MOL     -0.558643
     23 C9          0.2280    4.4160   -2.2360 c3        1 MOL      0.156360
     24 C10         1.2870    4.8920   -1.3350 c3        1 MOL     -0.275828
     25 C11         0.5610    4.8100   -3.6220 c3        1 MOL     -0.209817
     26 C12         2.6900    4.2830   -1.5620 c3        1 MOL     -0.167015
     27 H8         -1.5670    3.4450   -0.5330 hn        1 MOL      0.268864
     28 H9         -1.2500    6.1020   -1.7650 h1        1 MOL      0.099134
     29 H10         0.1680    3.3210   -2.1820 hc        1 MOL      0.031785
     30 H11         1.0790    4.7830   -0.2740 hc        1 MOL      0.073559
     31 H12         1.3370    5.9300   -1.6460 hc        1 MOL      0.073559
     32 H13         0.1380    5.8080   -3.7340 hc        1 MOL      0.046328
     33 H14         1.5870    4.7830   -3.9960 hc        1 MOL      0.046328
     34 H15        -0.0620    4.2510   -4.3270 hc        1 MOL      0.046328
     35 H16         3.4250    4.8550   -0.9920 hc        1 MOL      0.072490
     36 H17         2.8840    3.3160   -1.0770 hc        1 MOL      0.072490
     37 H18         3.0640    4.4440   -2.5700 hc        1 MOL      0.072490
     38 N3         -2.8230    3.4570   -2.8100 n         1 MOL     -0.243542
     39 C13        -3.6860    2.8450   -3.7500 c3        1 MOL     -0.048617
     40 C14        -5.1130    2.4130   -3.2240 c         1 MOL      0.482929
     41 O6         -5.8250    1.9590   -4.0610 o         1 MOL     -0.525696
     42 C15        -2.8900    1.6930   -4.3660 c3        1 MOL     -0.150377
     43 C16        -2.2920    0.7790   -3.3050 c         1 MOL      0.752607
     44 O7         -2.9040    0.6210   -2.2420 o         1 MOL     -0.703822
     45 O8         -1.1970    0.2470   -3.5240 o         1 MOL     -0.703822
     46 H19        -2.6950    2.9420   -1.9540 hn        1 MOL      0.095776
     47 H20        -3.7990    3.5320   -4.5830 h1        1 MOL      0.106381
     48 H21        -2.0710    2.2250   -4.8480 hc        1 MOL      0.042292
     49 H22        -3.3860    1.1200   -5.1650 hc        1 MOL      0.042292
     50 N4         -5.4830    2.6700   -1.9430 n         1 MOL     -0.314386
     51 C17        -6.9060    2.4030   -1.5410 c3        1 MOL     -0.137240
     52 C18        -7.3840    0.9340   -1.5480 c         1 MOL      0.502959
     53 O9         -8.5920    0.7380   -1.5680 o         1 MOL     -0.617353
     54 H23        -4.8040    2.7860   -1.2110 hn        1 MOL      0.207081
     55 H24        -7.5730    2.9650   -2.1860 h1        1 MOL      0.100900
     56 H25        -7.0150    2.6350   -0.4750 h1        1 MOL      0.100900
     57 N5         -6.5130   -0.0670   -1.5790 n         1 MOL     -0.133650
     58 C19        -6.7340   -1.5250   -1.9180 c3        1 MOL     -0.053761
     59 C20        -7.0410   -2.4870   -0.7250 c         1 MOL      0.344843
     60 O10        -7.1950   -3.7080   -0.9010 o         1 MOL     -0.500804
     61 C21        -5.5660   -2.0430   -2.8340 c3        1 MOL     -0.360282
     62 C22        -4.2350   -2.1670   -2.0410 c         1 MOL      0.776114
     63 O11        -4.1730   -1.6690   -0.8930 o         1 MOL     -0.682047
     64 O12        -3.2550   -2.6790   -2.6120 o         1 MOL     -0.682047
     65 H26        -5.5460    0.2210   -1.5250 hn        1 MOL      0.118661
     66 H27        -7.6500   -1.5580   -2.5160 h1        1 MOL      0.121961
     67 H28        -5.4680   -1.2970   -3.6210 hc        1 MOL      0.114184
     68 H29        -5.7450   -3.0410   -3.2280 hc        1 MOL      0.114184
     69 N6         -7.0880   -1.9690    0.4690 n         1 MOL     -0.194938
     70 C23        -7.2330   -2.7340    1.6810 c3        1 MOL     -0.225713
     71 C24        -6.0070   -3.5380    2.1930 c         1 MOL      0.570727
     72 O13        -6.2540   -4.2750    3.1860 o         1 MOL     -0.606359
     73 H30        -6.9320   -0.9640    0.5290 hn        1 MOL      0.215511
     74 H31        -7.9970   -3.4930    1.5530 h1        1 MOL      0.104418
     75 H32        -7.6030   -2.0190    2.4250 h1        1 MOL      0.104418
     76 N7         -4.8370   -3.3780    1.6240 n         1 MOL     -0.380959
     77 C25        -3.6170   -4.2050    1.9500 c3        1 MOL     -0.006637
     78 C26        -2.3390   -3.3130    2.0100 c         1 MOL      0.375473
     79 O14        -2.3610   -2.2590    1.4250 o         1 MOL     -0.379625
     80 C27        -3.5510   -5.3360    0.9590 c3        1 MOL     -0.101492
     81 C28        -3.6330   -4.8420   -0.5450 c3        1 MOL     -0.218952
     82 C29        -3.1660   -5.9140   -1.5900 c         1 MOL      0.665358
     83 N8         -2.3920   -5.4700   -2.5110 n         1 MOL     -0.715636
     84 O15        -3.4830   -7.0860   -1.4750 o         1 MOL     -0.632307
     85 H33        -4.6870   -2.6630    0.9250 hn        1 MOL      0.399177
     86 H34        -3.6910   -4.7200    2.9100 h1        1 MOL      0.052258
     87 H35        -4.3930   -5.9820    1.2160 hc        1 MOL      0.058787
     88 H36        -2.6600   -5.9470    1.0830 hc        1 MOL      0.058787
     89 H37        -3.0020   -3.9560   -0.6020 hc        1 MOL      0.107902
     90 H38        -4.6540   -4.5190   -0.7930 hc        1 MOL      0.107902
     91 H39        -2.1960   -4.4900   -2.6380 hn        1 MOL      0.328131
     92 H40        -1.9970   -6.0990   -3.1940 hn        1 MOL      0.328131
     93 N9         -1.1920   -3.7940    2.5510 n         1 MOL     -0.221600
     94 C30        -0.0160   -3.0120    2.8030 c3        1 MOL     -0.444355
     95 C31         1.0120   -3.2540    1.8360 c         1 MOL      0.632666
     96 O16         1.5200   -4.3650    1.6870 o         1 MOL     -0.604165
     97 C32         0.4590   -3.0080    4.2700 c3        1 MOL      0.456212
     98 C33         1.3180   -1.8030    4.5000 c3        1 MOL     -0.367906
     99 C34        -0.7040   -2.8460    5.2050 c3        1 MOL     -0.367906
    100 H41        -1.2810   -4.5960    3.1570 hn        1 MOL      0.255247
    101 H42        -0.2170   -1.9500    2.6730 h1        1 MOL      0.066809
    102 H43         1.1570   -3.7880    4.5640 hc        1 MOL     -0.043150
    103 H44         1.6960   -1.9190    5.5210 hc        1 MOL      0.079243
    104 H45         2.1430   -1.7740    3.7830 hc        1 MOL      0.079243
    105 H46         0.6850   -0.9170    4.4060 hc        1 MOL      0.079243
    106 H47        -1.3470   -2.0290    4.8890 hc        1 MOL      0.079243
    107 H48        -1.2860   -3.7620    5.2560 hc        1 MOL      0.079243
    108 H49        -0.3390   -2.6670    6.2170 hc        1 MOL      0.079243
    109 N10         1.4630   -2.2920    1.0230 n         1 MOL     -0.429210
    110 C35         2.6610   -2.3980    0.1740 c3        1 MOL      0.195266
    111 C36         3.9550   -2.1030    0.9520 c         1 MOL      0.199347
    112 O17         3.8980   -1.4470    1.9950 o         1 MOL     -0.358052
    113 C37         2.4860   -1.4040   -0.9400 c3        1 MOL     -0.549042
    114 C38         3.5440   -1.6560   -1.9770 c         1 MOL      0.812514
    115 N11         3.7730   -2.8570   -2.3590 n         1 MOL     -0.832096
    116 O18         4.3190   -0.7540   -2.2720 o         1 MOL     -0.613249
    117 H50         1.0980   -1.3610    1.1600 hn        1 MOL      0.540854
    118 H51         2.6800   -3.4180   -0.2050 h1        1 MOL      0.029633
    119 H52         2.4750   -0.3530   -0.6710 hc        1 MOL      0.171984
    120 H53         1.5080   -1.5270   -1.4160 hc        1 MOL      0.171984
    121 H54         3.1510   -3.5910   -2.0440 hn        1 MOL      0.367566
    122 H55         4.3890   -3.1090   -3.1150 hn        1 MOL      0.367566
    123 N12         5.1140   -2.5710    0.5000 n         1 MOL     -0.193119
    124 C39         6.4800   -2.1340    0.9430 c3        1 MOL      0.159570
    125 C40         6.8050   -0.5970    0.7820 c         1 MOL      0.179218
    126 O19         7.7810   -0.1170    1.3180 o         1 MOL     -0.547671
    127 C41         7.5010   -3.0360    0.1960 c3        1 MOL     -0.232329
    128 C42         7.3940   -3.0960   -1.3390 ca        1 MOL      0.017536
    129 C43         6.8720   -4.2710   -1.9540 ca        1 MOL     -0.072914
    130 C44         7.9190   -2.0330   -2.0890 ca        1 MOL     -0.072914
    131 C45         6.8930   -4.3640   -3.3330 ca        1 MOL     -0.350861
    132 C46         7.9110   -2.1410   -3.4600 ca        1 MOL     -0.350861
    133 C47         7.4210   -3.2740   -4.0990 ca        1 MOL      0.422705
    134 O20         7.3230   -3.3410   -5.4540 oh        1 MOL     -0.563970
    135 H56         5.1530   -3.2160   -0.2690 hn        1 MOL      0.154479
    136 H57         6.6010   -2.3900    2.0010 h1        1 MOL      0.041808
    137 H58         7.2210   -4.0320    0.5410 hc        1 MOL      0.071303
    138 H59         8.5310   -2.8090    0.4580 hc        1 MOL      0.071303
    139 H60         6.5690   -5.1010   -1.3380 ha        1 MOL      0.109893
    140 H61         8.2580   -1.1240   -1.6160 ha        1 MOL      0.109893
    141 H62         6.5930   -5.2660   -3.8430 ha        1 MOL      0.147109
    142 H63         8.3170   -1.3410   -4.0670 ha        1 MOL      0.147109
    143 H64         7.6610   -2.5000   -5.7810 ho        1 MOL      0.406474
    144 N13         6.0120    0.1080   -0.0150 n         1 MOL      0.647858
    145 C48         6.1040    1.5850   -0.0070 c3        1 MOL     -0.397244
    146 C49         5.1710    2.2130    1.0370 c         1 MOL      0.575411
    147 O21         5.2630    3.3880    1.2910 o         1 MOL     -0.520291
    148 C50         5.8230    2.1110   -1.3880 c3        1 MOL      0.305795
    149 C51         6.6970    1.7720   -2.5300 c3        1 MOL     -0.114880
    150 C52         8.0870    2.1670   -2.1120 c         1 MOL      0.561478
    151 O22         8.3730    3.3290   -1.7340 o         1 MOL     -0.684043
    152 O23         8.9500    1.2540   -2.0350 o         1 MOL     -0.684043
    153 H65         5.3540   -0.3750   -0.6180 hn        1 MOL      0.172793
    154 H66         7.0450    1.9340    0.4010 h1        1 MOL      0.170613
    155 H67         5.8300    3.1950   -1.2770 hc        1 MOL     -0.096244
    156 H68         4.8430    1.7810   -1.7110 hc        1 MOL     -0.096244
    157 H69         6.3640    2.2860   -3.4270 hc        1 MOL     -0.014785
    158 H70         6.6570    0.6970   -2.6650 hc        1 MOL     -0.014785
    159 N14         4.2830    1.4570    1.7540 n         1 MOL     -0.230987
    160 C53         3.3950    1.9900    2.6370 c3        1 MOL     -0.016801
    161 C54         3.8030    1.6710    4.0760 c         1 MOL      0.567768
    162 O24         3.7500    2.5560    4.9130 o         1 MOL     -0.567866
    163 C55         2.0010    1.3900    2.4230 c3        1 MOL     -0.075952
    164 C56         1.5020    1.7120    0.9860 c3        1 MOL      0.321137
    165 C57         0.1970    1.1100    0.6750 c         1 MOL      0.503731
    166 O25        -0.5480    1.7480   -0.0900 o         1 MOL     -0.677472
    167 O26        -0.2340    0.0160    1.0990 o         1 MOL     -0.677472
    168 H71         4.1110    0.4960    1.5120 hn        1 MOL     -0.363643
    169 H72         3.2600    3.0660    2.5320 h1        1 MOL      0.053996
    170 H73         1.4060    1.8130    3.2320 hc        1 MOL      0.030707
    171 H74         1.8740    0.3290    2.6690 hc        1 MOL      0.030707
    172 H75         2.2010    1.5220    0.1790 hc        1 MOL     -0.025927
    173 H76         1.3260    2.7910    0.9630 hc        1 MOL     -0.025927
    174 N15         4.1750    0.3790    4.3350 n         1 MOL     -0.248434
    175 C58         4.5680   -0.1260    5.6690 c3        1 MOL     -0.115360
    176 H77         5.2210   -0.9920    5.5510 h1        1 MOL      0.058235
    177 H78         5.0980    0.6560    6.2130 h1        1 MOL      0.058235
    178 H79         3.6770   -0.4170    6.2260 h1        1 MOL      0.058235
    179 H80         4.0760   -0.2970    3.5940 hn        1 MOL      0.212730
    180 Ca1        -2.6390    0.1600    0.2890 Ca        1 MOL      1.761332
    181 O27        -2.3010    1.1570    2.9100 oh        1 MOL     -0.966694
    182 H81        -2.8620    0.9400    3.6450 ho        1 MOL      0.443453
    183 H82        -1.6050    1.7050    3.2900 ho        1 MOL      0.443453
    184 O28        -4.6470   -0.3490    1.8680 oh        1 MOL     -0.966694
    185 H83        -4.4770   -0.3930    2.8080 ho        1 MOL      0.443453
    186 H84        -5.3600    0.2760    1.7770 ho        1 MOL      0.443453
    187 O29        -1.1000   -1.5230   -1.3800 oh        1 MOL     -0.966694
    188 H85        -1.0600   -0.8480   -2.0570 ho        1 MOL      0.443453
    189 H86        -1.7700   -2.1370   -1.6890 ho        1 MOL      0.443453
@<TRIPOS>BOND
     1    1    2 1   
     2    1    4 1   
     3    1    5 1   
     4    1    6 1   
     5    2    3 2   
     6    2    7 1   
     7    7    8 1   
     8    7   15 1   
     9    8    9 1   
    10    8   11 1   
    11    8   16 1   
    12    9   10 2   
    13    9   19 1   
    14   11   12 1   
    15   11   17 1   
    16   11   18 1   
    17   12   13 1   
    18   12   14 1   
    19   19   20 1   
    20   19   27 1   
    21   20   21 1   
    22   20   23 1   
    23   20   28 1   
    24   21   22 2   
    25   21   38 1   
    26   23   24 1   
    27   23   25 1   
    28   23   29 1   
    29   24   26 1   
    30   24   30 1   
    31   24   31 1   
    32   25   32 1   
    33   25   33 1   
    34   25   34 1   
    35   26   35 1   
    36   26   36 1   
    37   26   37 1   
    38   38   39 1   
    39   38   46 1   
    40   39   40 1   
    41   39   42 1   
    42   39   47 1   
    43   40   41 2   
    44   40   50 1   
    45   42   43 1   
    46   42   48 1   
    47   42   49 1   
    48   43   44 1   
    49   43   45 1   
    50   50   51 1   
    51   50   54 1   
    52   51   52 1   
    53   51   55 1   
    54   51   56 1   
    55   52   53 2   
    56   52   57 1   
    57   57   58 1   
    58   57   65 1   
    59   58   59 1   
    60   58   61 1   
    61   58   66 1   
    62   59   60 2   
    63   59   69 1   
    64   61   62 1   
    65   61   67 1   
    66   61   68 1   
    67   62   63 1   
    68   62   64 1   
    69   69   70 1   
    70   69   73 1   
    71   70   71 1   
    72   70   74 1   
    73   70   75 1   
    74   71   72 2   
    75   71   76 1   
    76   76   77 1   
    77   76   85 1   
    78   77   78 1   
    79   77   80 1   
    80   77   86 1   
    81   78   79 2   
    82   78   93 1   
    83   80   81 1   
    84   80   87 1   
    85   80   88 1   
    86   81   82 1   
    87   81   89 1   
    88   81   90 1   
    89   82   83 1   
    90   82   84 2   
    91   83   91 1   
    92   83   92 1   
    93   93   94 1   
    94   93  100 1   
    95   94   95 1   
    96   94   97 1   
    97   94  101 1   
    98   95   96 2   
    99   95  109 1   
   100   97   98 1   
   101   97   99 1   
   102   97  102 1   
   103   98  103 1   
   104   98  104 1   
   105   98  105 1   
   106   99  106 1   
   107   99  107 1   
   108   99  108 1   
   109  109  110 1   
   110  109  117 1   
   111  110  111 1   
   112  110  113 1   
   113  110  118 1   
   114  111  112 2   
   115  111  123 1   
   116  113  114 1   
   117  113  119 1   
   118  113  120 1   
   119  114  115 1   
   120  114  116 2   
   121  115  121 1   
   122  115  122 1   
   123  123  124 1   
   124  123  135 1   
   125  124  125 1   
   126  124  127 1   
   127  124  136 1   
   128  125  126 2   
   129  125  144 1   
   130  127  128 1   
   131  127  137 1   
   132  127  138 1   
   133  128  129 ar  
   134  128  130 ar  
   135  129  131 ar  
   136  129  139 1   
   137  130  132 ar  
   138  130  140 1   
   139  131  133 ar  
   140  131  141 1   
   141  132  133 ar  
   142  132  142 1   
   143  133  134 1   
   144  134  143 1   
   145  144  145 1   
   146  144  153 1   
   147  145  146 1   
   148  145  148 1   
   149  145  154 1   
   150  146  147 2   
   151  146  159 1   
   152  148  149 1   
   153  148  155 1   
   154  148  156 1   
   155  149  150 1   
   156  149  157 1   
   157  149  158 1   
   158  150  151 1   
   159  150  152 1   
   160  159  160 1   
   161  159  168 1   
   162  160  161 1   
   163  160  163 1   
   164  160  169 1   
   165  161  162 2   
   166  161  174 1   
   167  163  164 1   
   168  163  170 1   
   169  163  171 1   
   170  164  165 1   
   171  164  172 1   
   172  164  173 1   
   173  165  166 1   
   174  165  167 1   
   175  174  175 1   
   176  174  179 1   
   177  175  176 1   
   178  175  177 1   
   179  175  178 1   
   180  181  182 1   
   181  181  183 1   
   182  184  185 1   
   183  184  186 1   
   184  187  188 1   
   185  187  189 1   
@<TRIPOS>SUBSTRUCTURE
     1 MOL         1 TEMP              0 ****  ****    0 ROOT
