@<TRIPOS>MOLECULE
MOL
  186   183     1     0     0
SMALL
resp


@<TRIPOS>ATOM
      1 C1          1.6340   -2.3140    6.4810 c3        1 MOL     -0.350320
      2 C2          1.8850   -2.0680    4.9950 c         1 MOL      0.714704
      3 O1          1.1710   -1.2190    4.4690 o         1 MOL     -0.604008
      4 H1          2.2660   -1.6490    7.0700 hc        1 MOL      0.078084
      5 H2          0.5870   -2.1160    6.7110 hc        1 MOL      0.078084
      6 H3          1.8700   -3.3500    6.7220 hc        1 MOL      0.078084
      7 N1          2.9190   -2.6130    4.4620 n         1 MOL     -0.559964
      8 C3          3.2000   -2.4640    3.0690 c3        1 MOL      0.123379
      9 C4          3.2190   -3.8070    2.4040 c         1 MOL      0.527007
     10 O2          3.6790   -4.8280    2.9300 o         1 MOL     -0.590518
     11 C5          4.5310   -1.7420    2.9530 c3        1 MOL     -0.157584
     12 C6          4.9440   -1.4840    1.5100 c         1 MOL      0.690346
     13 O3          6.1270   -1.1740    1.2680 o         1 MOL     -0.673058
     14 O4          4.1360   -1.4770    0.5530 o         1 MOL     -0.673058
     15 H4          3.4290   -3.2790    5.0230 hn        1 MOL      0.312728
     16 H5          2.4380   -1.8930    2.5320 h1        1 MOL      0.072759
     17 H6          5.3640   -2.3250    3.3320 hc        1 MOL      0.031105
     18 H7          4.5360   -0.8180    3.5300 hc        1 MOL      0.031105
     19 N2          2.5330   -3.9170    1.2540 n         1 MOL     -0.129966
     20 C7          2.2850   -5.2180    0.5790 c3        1 MOL     -0.396025
     21 C8          2.8710   -5.4160   -0.7870 c         1 MOL      0.662018
     22 O5          2.8300   -6.4780   -1.3220 o         1 MOL     -0.580884
     23 C9          0.7640   -5.6810    0.4670 c3        1 MOL      0.330454
     24 C10        -0.1030   -4.7180   -0.3710 c3        1 MOL     -0.012244
     25 C11         0.2050   -5.7610    1.9320 c3        1 MOL     -0.337012
     26 C12        -1.5930   -5.0110   -0.2530 c3        1 MOL     -0.405658
     27 H8          1.9970   -3.1550    0.8680 hn        1 MOL      0.112222
     28 H9          2.7560   -5.9940    1.1840 h1        1 MOL      0.152761
     29 H10         0.7050   -6.6570   -0.0150 hc        1 MOL     -0.018287
     30 H11         0.1030   -4.8680   -1.4300 hc        1 MOL      0.074097
     31 H12         0.1240   -3.6620   -0.2030 hc        1 MOL      0.074097
     32 H13        -0.6200   -6.4590    1.7790 hc        1 MOL      0.058204
     33 H14         0.9570   -6.1530    2.6190 hc        1 MOL      0.058204
     34 H15        -0.3210   -4.8890    2.3340 hc        1 MOL      0.058204
     35 H16        -2.1810   -4.3160   -0.8570 hc        1 MOL      0.109141
     36 H17        -1.7250   -6.0470   -0.5780 hc        1 MOL      0.109141
     37 H18        -1.8710   -4.8780    0.7920 hc        1 MOL      0.109141
     38 N3          3.5120   -4.3620   -1.3040 n         1 MOL     -0.544477
     39 C13         3.9650   -4.2860   -2.7260 c3        1 MOL     -0.010588
     40 C14         5.3460   -3.6090   -2.8320 c         1 MOL      0.523804
     41 O6          6.0590   -3.7500   -3.8150 o         1 MOL     -0.585778
     42 C15         2.8620   -3.7210   -3.5790 c3        1 MOL     -0.167388
     43 C16         2.1710   -2.4010   -3.1600 c         1 MOL      0.716641
     44 O7          2.6500   -1.8330   -2.1710 o         1 MOL     -0.714884
     45 O8          1.0720   -2.0710   -3.6980 o         1 MOL     -0.714884
     46 H19         3.4300   -3.4510   -0.8750 hn        1 MOL      0.348620
     47 H20         4.1060   -5.3090   -3.0960 h1        1 MOL      0.101780
     48 H21         2.0890   -4.4930   -3.5380 hc        1 MOL      0.047984
     49 H22         3.1250   -3.6120   -4.6310 hc        1 MOL      0.047984
     50 N4          5.8410   -3.0260   -1.7400 n         1 MOL     -0.194535
     51 C17         7.2480   -2.6320   -1.5190 c3        1 MOL     -0.229958
     52 C18         7.4930   -1.0990   -1.6780 c         1 MOL      0.585602
     53 O9          8.6500   -0.6320   -1.5480 o         1 MOL     -0.602632
     54 H23         5.2130   -2.9410   -0.9540 hn        1 MOL      0.145227
     55 H24         8.0000   -3.0770   -2.1720 h1        1 MOL      0.117040
     56 H25         7.6240   -2.8400   -0.5130 h1        1 MOL      0.117040
     57 N5          6.4080   -0.3270   -1.9270 n         1 MOL     -0.262637
     58 C19         6.6100    1.0420   -2.4190 c3        1 MOL     -0.086953
     59 C20         6.8840    2.0700   -1.2780 c         1 MOL      0.491522
     60 O10         7.0760    3.2710   -1.4250 o         1 MOL     -0.592663
     61 C21         5.4110    1.5120   -3.3220 c3        1 MOL     -0.094614
     62 C22         4.0270    1.3830   -2.6910 c         1 MOL      0.832727
     63 O11         3.9240    1.3360   -1.4420 o         1 MOL     -0.741739
     64 O12         3.0100    1.3180   -3.4140 o         1 MOL     -0.741739
     65 H26         5.5070   -0.7740   -1.9650 hn        1 MOL      0.181232
     66 H27         7.5120    1.1150   -3.0080 h1        1 MOL      0.088486
     67 H28         5.3980    0.9490   -4.2620 hc        1 MOL      0.024920
     68 H29         5.5300    2.5580   -3.6060 hc        1 MOL      0.024920
     69 N6          6.6570    1.5710   -0.0570 n         1 MOL     -0.181749
     70 C23         6.5130    2.1940    1.2510 c3        1 MOL     -0.193899
     71 C24         5.4330    3.2960    1.4090 c         1 MOL      0.458041
     72 O13         5.5760    4.2120    2.2330 o         1 MOL     -0.595639
     73 H30         6.5650    0.5590   -0.1170 hn        1 MOL      0.192742
     74 H31         7.4080    2.7630    1.5220 h1        1 MOL      0.102238
     75 H32         6.2510    1.3420    1.8800 h1        1 MOL      0.102238
     76 N7          4.4590    3.4130    0.4900 n         1 MOL     -0.039830
     77 C25         3.3160    4.4080    0.5410 c3        1 MOL      0.014844
     78 C26         1.9320    3.6760    0.6140 c         1 MOL      0.426964
     79 O14         1.7110    2.7180   -0.0930 o         1 MOL     -0.500716
     80 C27         3.3240    5.4530   -0.5620 c3        1 MOL      0.016006
     81 C28         4.7010    6.2020   -0.5880 c3        1 MOL     -0.353150
     82 C29         4.6740    7.2680   -1.6550 c         1 MOL      0.657664
     83 N8          5.2200    7.0090   -2.8770 n         1 MOL     -0.823667
     84 O15         4.0400    8.3120   -1.5060 o         1 MOL     -0.577754
     85 H33         4.3920    2.7150   -0.2390 hn        1 MOL      0.082205
     86 H34         3.3150    4.9780    1.4670 h1        1 MOL      0.017717
     87 H35         2.4810    6.1350   -0.4580 hc        1 MOL      0.061488
     88 H36         3.2620    4.9420   -1.5240 hc        1 MOL      0.061488
     89 H37         5.5440    5.5320   -0.7450 hc        1 MOL      0.122681
     90 H38         4.9190    6.7240    0.3440 hc        1 MOL      0.122681
     91 H39         5.6620    6.1140   -2.9970 hn        1 MOL      0.367663
     92 H40         4.9430    7.5570   -3.6750 hn        1 MOL      0.367663
     93 N9          1.0350    4.2130    1.4470 n         1 MOL     -0.468401
     94 C30        -0.2820    3.5410    1.7540 c3        1 MOL     -0.017966
     95 C31        -1.3400    3.8800    0.7030 c         1 MOL      0.658429
     96 O16        -1.6160    5.0890    0.6040 o         1 MOL     -0.626319
     97 C32        -0.8180    3.7050    3.1730 c3        1 MOL      0.081710
     98 C33        -2.1750    3.1210    3.4770 c3        1 MOL     -0.201115
     99 C34         0.1980    3.3090    4.3250 c3        1 MOL     -0.201115
    100 H41         1.1980    5.0910    1.9160 hn        1 MOL      0.321145
    101 H42        -0.0620    2.4900    1.5880 h1        1 MOL      0.165043
    102 H43        -0.8730    4.7870    3.2620 hc        1 MOL      0.018104
    103 H44        -2.6380    3.3720    4.4380 hc        1 MOL      0.050319
    104 H45        -2.8910    3.4380    2.7300 hc        1 MOL      0.050319
    105 H46        -2.1380    2.0420    3.3420 hc        1 MOL      0.050319
    106 H47         0.0910    2.2580    4.6160 hc        1 MOL      0.050319
    107 H48         1.2290    3.5490    4.0780 hc        1 MOL      0.050319
    108 H49         0.0920    3.9400    5.2080 hc        1 MOL      0.050319
    109 N10        -2.0380    2.9380    0.1030 n         1 MOL     -0.272715
    110 C35        -3.2680    3.2070   -0.6000 c3        1 MOL      0.025582
    111 C36        -4.5180    2.5380    0.0140 c         1 MOL      0.363611
    112 O17        -4.4430    1.8570    1.0200 o         1 MOL     -0.274531
    113 C37        -3.0010    2.8750   -2.0890 c3        1 MOL     -0.149812
    114 C38        -3.1470    1.3870   -2.2820 c         1 MOL      0.556762
    115 N11        -2.3970    0.5320   -1.6300 n         1 MOL     -0.517825
    116 O18        -4.1280    0.9200   -2.9360 o         1 MOL     -0.593356
    117 H50        -1.7540    2.0440    0.4560 hn        1 MOL     -0.004385
    118 H51        -3.5000    4.2700   -0.5160 h1        1 MOL      0.087337
    119 H52        -2.0860    3.2110   -2.5670 hc        1 MOL      0.065871
    120 H53        -3.8020    3.3560   -2.6460 hc        1 MOL      0.065871
    121 H54        -1.5620    0.7020   -1.0880 hn        1 MOL      0.328731
    122 H55        -2.6040   -0.4590   -1.6210 hn        1 MOL      0.328731
    123 N12        -5.6690    2.8020   -0.5910 n         1 MOL     -0.448250
    124 C39        -6.8860    2.3740    0.0380 c3        1 MOL      0.025607
    125 C40        -6.9890    0.8660    0.3880 c         1 MOL      0.527078
    126 O19        -7.8260    0.5290    1.2340 o         1 MOL     -0.576090
    127 C41        -8.1270    2.8410   -0.7400 c3        1 MOL     -0.053761
    128 C42        -8.8710    1.9840   -1.6320 ca        1 MOL     -0.052565
    129 C43        -9.7510    1.0570   -1.1540 ca        1 MOL     -0.122514
    130 C44        -8.6560    2.0900   -2.9780 ca        1 MOL     -0.122514
    131 C45       -10.4170    0.1070   -2.0050 ca        1 MOL     -0.302055
    132 C46        -9.4490    1.3300   -3.9110 ca        1 MOL     -0.302055
    133 C47       -10.2890    0.2760   -3.3890 ca        1 MOL      0.443157
    134 O20       -11.1890   -0.3680   -4.1900 oh        1 MOL     -0.588199
    135 H56        -5.8120    3.5450   -1.2760 hn        1 MOL      0.310489
    136 H57        -7.0190    2.9020    0.9830 h1        1 MOL      0.057810
    137 H58        -8.1090    3.8480   -1.1580 hc        1 MOL      0.039985
    138 H59        -8.7740    3.0320    0.1210 hc        1 MOL      0.039985
    139 H60        -9.9090    1.0400   -0.0870 ha        1 MOL      0.130154
    140 H61        -7.9690    2.8380   -3.3620 ha        1 MOL      0.130154
    141 H62       -11.0870   -0.6010   -1.5620 ha        1 MOL      0.155081
    142 H63        -9.3930    1.5670   -4.9620 ha        1 MOL      0.155081
    143 H64       -11.6850   -1.1260   -3.8730 ho        1 MOL      0.405112
    144 N13        -6.2560    0.0050   -0.3020 n         1 MOL     -0.141403
    145 C48        -6.3500   -1.4660   -0.0300 c3        1 MOL     -0.068070
    146 C49        -5.5510   -1.7440    1.3110 c         1 MOL      0.231345
    147 O21        -5.9750   -2.6370    2.1340 o         1 MOL     -0.496991
    148 C50        -5.5800   -2.1040   -1.2250 c3        1 MOL      0.176217
    149 C51        -5.5460   -3.6620   -0.9000 c3        1 MOL     -0.282898
    150 C52        -5.1390   -4.5990   -2.0540 c         1 MOL      0.785013
    151 O22        -5.4510   -4.3060   -3.1920 o         1 MOL     -0.751479
    152 O23        -4.5570   -5.6490   -1.8150 o         1 MOL     -0.751479
    153 H65        -5.6210    0.3520   -1.0120 hn        1 MOL      0.156208
    154 H66        -7.3800   -1.7930   -0.0880 h1        1 MOL      0.125454
    155 H67        -4.5770   -1.7020   -1.3370 hc        1 MOL     -0.028118
    156 H68        -6.1760   -1.8940   -2.1210 hc        1 MOL     -0.028118
    157 H69        -6.5450   -3.9680   -0.5810 hc        1 MOL      0.038854
    158 H70        -4.8820   -3.8440   -0.0510 hc        1 MOL      0.038854
    159 N14        -4.5300   -0.9180    1.6250 n         1 MOL     -0.020170
    160 C53        -3.6510   -1.0780    2.8080 c3        1 MOL     -0.198600
    161 C54        -4.1150   -0.2710    4.0350 c         1 MOL      0.466047
    162 O24        -3.8220   -0.5880    5.1700 o         1 MOL     -0.535837
    163 C55        -2.2450   -0.6230    2.4160 c3        1 MOL     -0.036631
    164 C56        -1.6610   -1.6660    1.3690 c3        1 MOL     -0.092596
    165 C57        -0.4420   -1.0430    0.7340 c         1 MOL      0.754693
    166 O25         0.7080   -1.5470    0.8040 o         1 MOL     -0.766045
    167 O26        -0.5870    0.1070    0.3010 o         1 MOL     -0.766045
    168 H71        -4.2810   -0.2190    0.9320 hn        1 MOL      0.122719
    169 H72        -3.5470   -2.1280    3.0890 h1        1 MOL      0.134395
    170 H73        -1.6540   -0.5920    3.3320 hc        1 MOL      0.077918
    171 H74        -2.2270    0.4000    2.0630 hc        1 MOL      0.077918
    172 H75        -2.3650   -1.8880    0.5680 hc        1 MOL      0.052343
    173 H76        -1.4040   -2.6350    1.7960 hc        1 MOL      0.052343
    174 N15        -4.9250    0.7550    3.7160 n         1 MOL     -0.117824
    175 C58        -5.3170    1.8480    4.5890 c3        1 MOL     -0.131265
    176 H77        -4.4780    2.1210    5.2270 h1        1 MOL      0.056591
    177 H78        -5.6100    2.7080    3.9860 h1        1 MOL      0.056591
    178 H79        -6.1570    1.5340    5.2090 h1        1 MOL      0.056591
    179 H80        -5.1340    0.9830    2.7500 hn        1 MOL      0.070012
    180 Ca1         2.2170    0.1250   -0.2820 Ca        1 MOL      1.752016
    181 O27         2.1420    1.0440    2.3350 oh        1 MOL     -1.017066
    182 H81         2.8040    1.3250    2.9600 ho        1 MOL      0.474530
    183 H82         1.3780    0.8160    2.8730 ho        1 MOL      0.474530
    184 O28         0.7900    0.3580   -2.7520 oh        1 MOL     -1.017066
    185 H83         0.6650   -0.4800   -3.2030 ho        1 MOL      0.474530
    186 H84         1.5780    0.7260   -3.1450 ho        1 MOL      0.474530
@<TRIPOS>BOND
     1    1    2 1   
     2    1    4 1   
     3    1    5 1   
     4    1    6 1   
     5    2    3 2   
     6    2    7 1   
     7    7    8 1   
     8    7   15 1   
     9    8    9 1   
    10    8   11 1   
    11    8   16 1   
    12    9   10 2   
    13    9   19 1   
    14   11   12 1   
    15   11   17 1   
    16   11   18 1   
    17   12   13 1   
    18   12   14 1   
    19   19   20 1   
    20   19   27 1   
    21   20   21 1   
    22   20   23 1   
    23   20   28 1   
    24   21   22 2   
    25   21   38 1   
    26   23   24 1   
    27   23   25 1   
    28   23   29 1   
    29   24   26 1   
    30   24   30 1   
    31   24   31 1   
    32   25   32 1   
    33   25   33 1   
    34   25   34 1   
    35   26   35 1   
    36   26   36 1   
    37   26   37 1   
    38   38   39 1   
    39   38   46 1   
    40   39   40 1   
    41   39   42 1   
    42   39   47 1   
    43   40   41 2   
    44   40   50 1   
    45   42   43 1   
    46   42   48 1   
    47   42   49 1   
    48   43   44 1   
    49   43   45 1   
    50   50   51 1   
    51   50   54 1   
    52   51   52 1   
    53   51   55 1   
    54   51   56 1   
    55   52   53 2   
    56   52   57 1   
    57   57   58 1   
    58   57   65 1   
    59   58   59 1   
    60   58   61 1   
    61   58   66 1   
    62   59   60 2   
    63   59   69 1   
    64   61   62 1   
    65   61   67 1   
    66   61   68 1   
    67   62   63 1   
    68   62   64 1   
    69   69   70 1   
    70   69   73 1   
    71   70   71 1   
    72   70   74 1   
    73   70   75 1   
    74   71   72 2   
    75   71   76 1   
    76   76   77 1   
    77   76   85 1   
    78   77   78 1   
    79   77   80 1   
    80   77   86 1   
    81   78   79 2   
    82   78   93 1   
    83   80   81 1   
    84   80   87 1   
    85   80   88 1   
    86   81   82 1   
    87   81   89 1   
    88   81   90 1   
    89   82   83 1   
    90   82   84 2   
    91   83   91 1   
    92   83   92 1   
    93   93   94 1   
    94   93  100 1   
    95   94   95 1   
    96   94   97 1   
    97   94  101 1   
    98   95   96 2   
    99   95  109 1   
   100   97   98 1   
   101   97   99 1   
   102   97  102 1   
   103   98  103 1   
   104   98  104 1   
   105   98  105 1   
   106   99  106 1   
   107   99  107 1   
   108   99  108 1   
   109  109  110 1   
   110  109  117 1   
   111  110  111 1   
   112  110  113 1   
   113  110  118 1   
   114  111  112 2   
   115  111  123 1   
   116  113  114 1   
   117  113  119 1   
   118  113  120 1   
   119  114  115 1   
   120  114  116 2   
   121  115  121 1   
   122  115  122 1   
   123  123  124 1   
   124  123  135 1   
   125  124  125 1   
   126  124  127 1   
   127  124  136 1   
   128  125  126 2   
   129  125  144 1   
   130  127  128 1   
   131  127  137 1   
   132  127  138 1   
   133  128  129 ar  
   134  128  130 ar  
   135  129  131 ar  
   136  129  139 1   
   137  130  132 ar  
   138  130  140 1   
   139  131  133 ar  
   140  131  141 1   
   141  132  133 ar  
   142  132  142 1   
   143  133  134 1   
   144  134  143 1   
   145  144  145 1   
   146  144  153 1   
   147  145  146 1   
   148  145  148 1   
   149  145  154 1   
   150  146  147 2   
   151  146  159 1   
   152  148  149 1   
   153  148  155 1   
   154  148  156 1   
   155  149  150 1   
   156  149  157 1   
   157  149  158 1   
   158  150  151 1   
   159  150  152 1   
   160  159  160 1   
   161  159  168 1   
   162  160  161 1   
   163  160  163 1   
   164  160  169 1   
   165  161  162 2   
   166  161  174 1   
   167  163  164 1   
   168  163  170 1   
   169  163  171 1   
   170  164  165 1   
   171  164  172 1   
   172  164  173 1   
   173  165  166 1   
   174  165  167 1   
   175  174  175 1   
   176  174  179 1   
   177  175  176 1   
   178  175  177 1   
   179  175  178 1   
   180  181  182 1   
   181  181  183 1   
   182  184  185 1   
   183  184  186 1   
@<TRIPOS>SUBSTRUCTURE
     1 MOL         1 TEMP              0 ****  ****    0 ROOT
