@<TRIPOS>MOLECULE
MOL
  175   173     1     0     0
SMALL
resp


@<TRIPOS>ATOM
      1 C1          0.0620    4.6600    5.4350 c3        1 MOL     -0.378086
      2 C2         -0.4970    4.5920    4.0190 c         1 MOL      0.682601
      3 O1          0.2310    4.8810    3.0490 o         1 MOL     -0.570655
      4 H1          0.2970    3.6530    5.7800 hc        1 MOL      0.094620
      5 H2          0.9680    5.2660    5.4400 hc        1 MOL      0.094620
      6 H3         -0.6790    5.1070    6.0970 hc        1 MOL      0.094620
      7 N1         -1.6810    4.0420    3.7580 n         1 MOL     -0.564026
      8 C3         -2.2230    3.6740    2.4940 c3        1 MOL      0.128874
      9 C4         -2.3510    4.7730    1.4740 c         1 MOL      0.463249
     10 O2         -2.7490    5.9140    1.8020 o         1 MOL     -0.575828
     11 C5         -3.6800    3.1450    2.7390 c3        1 MOL     -0.387553
     12 C6         -4.2630    2.3170    1.6440 c         1 MOL      0.848945
     13 O3         -5.4920    1.9520    1.8180 o         1 MOL     -0.715317
     14 O4         -3.6070    2.0180    0.6020 o         1 MOL     -0.715317
     15 H4         -2.2320    3.7810    4.5740 hn        1 MOL      0.299577
     16 H5         -1.6550    2.8140    2.1390 h1        1 MOL      0.122959
     17 H6         -4.2670    4.0530    2.9180 hc        1 MOL      0.087430
     18 H7         -3.6610    2.5100    3.6230 hc        1 MOL      0.087430
     19 N2         -1.9530    4.4590    0.2880 n         1 MOL     -0.268843
     20 C7         -2.0510    5.3350   -0.8710 c3        1 MOL      0.296631
     21 C8         -3.2750    5.0380   -1.7320 c         1 MOL      0.427245
     22 O5         -3.7400    6.0020   -2.3160 o         1 MOL     -0.581093
     23 C9         -0.7290    5.2090   -1.6850 c3        1 MOL     -0.348074
     24 H8         -1.4920    3.5750    0.1480 hn        1 MOL      0.180939
     25 H9         -2.1770    6.3760   -0.5930 h1        1 MOL      0.013946
     26 H10         0.0290    5.8770   -1.2770 hc        1 MOL      0.088943
     27 H11        -0.3560    4.2030   -1.4930 hc        1 MOL      0.088943
     28 H12        -0.7650    5.3250   -2.7700 hc        1 MOL      0.088943
     29 N3         -3.8520    3.8450   -1.8520 n         1 MOL     -0.428327
     30 C10        -4.6310    3.4520   -3.0300 c3        1 MOL      0.238246
     31 C11        -5.9170    2.6790   -2.6700 c         1 MOL      0.338357
     32 O6         -6.7500    2.5090   -3.5510 o         1 MOL     -0.549134
     33 C12        -3.6910    2.6670   -3.9690 c3        1 MOL     -0.123468
     34 C13        -3.0570    1.3950   -3.4470 c         1 MOL      0.707252
     35 O7         -2.3950    0.6730   -4.2400 o         1 MOL     -0.685308
     36 O8         -3.1830    1.0680   -2.2450 o         1 MOL     -0.685308
     37 H13        -3.5110    3.1060   -1.2620 hn        1 MOL      0.273853
     38 H14        -5.0460    4.3430   -3.5120 h1        1 MOL      0.043852
     39 H15        -2.8430    3.3390   -4.1220 hc        1 MOL      0.010199
     40 H16        -4.1690    2.4940   -4.9290 hc        1 MOL      0.010199
     41 N4         -6.0440    2.1510   -1.4330 n         1 MOL     -0.066032
     42 C14        -7.2620    1.3650   -0.9650 c3        1 MOL     -0.423628
     43 C15        -7.1710   -0.1460   -1.2370 c         1 MOL      0.605727
     44 O9         -8.1420   -0.8730   -1.0960 o         1 MOL     -0.616704
     45 H17        -5.3240    2.4470   -0.8020 hn        1 MOL      0.085985
     46 H18        -8.1610    1.6600   -1.5140 h1        1 MOL      0.178802
     47 H19        -7.4440    1.6290    0.0790 h1        1 MOL      0.178802
     48 N5         -6.0170   -0.6560   -1.6600 n         1 MOL     -0.294703
     49 C16        -5.8180   -2.0410   -2.1530 c3        1 MOL      0.017930
     50 C17        -5.8770   -3.2060   -1.1750 c         1 MOL      0.437269
     51 O10        -5.5990   -4.3890   -1.5210 o         1 MOL     -0.520461
     52 C18        -4.7020   -2.1040   -3.1350 c3        1 MOL     -0.112051
     53 C19        -3.3670   -2.4350   -2.5570 c         1 MOL      0.549461
     54 N6         -2.4990   -3.1070   -3.3290 n         1 MOL     -0.568088
     55 O11        -3.0860   -2.1010   -1.3560 o         1 MOL     -0.645456
     56 H20        -5.2860    0.0330   -1.7670 hn        1 MOL      0.245824
     57 H21        -6.7660   -2.1960   -2.6630 h1        1 MOL      0.099639
     58 H22        -4.6680   -1.1370   -3.6340 hc        1 MOL      0.045207
     59 H23        -4.9030   -2.8180   -3.9390 hc        1 MOL      0.045207
     60 H24        -2.7440   -3.4280   -4.2570 hn        1 MOL      0.325325
     61 H25        -1.5320   -2.9230   -3.1550 hn        1 MOL      0.325325
     62 N7         -6.2800   -2.9540    0.0480 n         1 MOL     -0.281297
     63 C20        -6.3090   -4.0170    1.0380 c3        1 MOL     -0.034719
     64 C21        -4.9730   -4.6800    1.5400 c         1 MOL      0.383930
     65 O12        -4.9740   -5.6250    2.2940 o         1 MOL     -0.561577
     66 H26        -6.5350   -1.9970    0.2430 hn        1 MOL      0.247238
     67 H27        -6.8870   -4.8520    0.6370 h1        1 MOL      0.087230
     68 H28        -6.8980   -3.9180    1.9500 h1        1 MOL      0.087230
     69 N8         -3.7980   -4.0940    1.2810 n         1 MOL      0.019028
     70 C22        -2.4690   -4.5750    1.7170 c3        1 MOL     -0.081578
     71 C23        -1.5840   -3.4170    1.9940 c         1 MOL      0.287317
     72 O13        -1.8520   -2.3410    1.4180 o         1 MOL     -0.360507
     73 C24        -1.9710   -5.5030    0.6160 c3        1 MOL      0.670505
     74 C25        -2.7170   -6.8400    0.7950 c3        1 MOL     -0.636295
     75 O14        -2.1490   -5.0340   -0.6790 oh        1 MOL     -0.654351
     76 H29        -3.9220   -3.2190    0.7890 hn        1 MOL     -0.141087
     77 H30        -2.5350   -5.0970    2.6680 h1        1 MOL      0.069622
     78 H31        -0.9130   -5.5640    0.8470 h1        1 MOL     -0.114024
     79 H32        -2.2350   -4.0870   -0.7130 ho        1 MOL      0.397897
     80 H33        -2.6150   -7.1310    1.8400 hc        1 MOL      0.155790
     81 H34        -3.7560   -6.7880    0.4670 hc        1 MOL      0.155790
     82 H35        -2.1930   -7.5540    0.1580 hc        1 MOL      0.155790
     83 N9         -0.4010   -3.5810    2.6410 n         1 MOL     -0.328760
     84 C26         0.7340   -2.7820    2.5040 c3        1 MOL      0.085395
     85 C27         1.4750   -3.0550    1.1490 c         1 MOL      0.538332
     86 O15         1.7480   -4.2270    0.9340 o         1 MOL     -0.577191
     87 C28         1.6750   -2.9560    3.6830 c3        1 MOL     -0.035388
     88 C29         1.0390   -2.3250    4.9230 c3        1 MOL     -0.168703
     89 C30         3.0540   -2.3150    3.5270 c3        1 MOL     -0.145240
     90 C31         0.9840   -0.7840    5.1270 c3        1 MOL      0.023290
     91 H36        -0.2310   -4.4590    3.1030 hn        1 MOL      0.244919
     92 H37         0.4620   -1.7280    2.4920 h1        1 MOL      0.170592
     93 H38         1.7450   -4.0320    3.8110 hc        1 MOL      0.021172
     94 H39         1.5340   -2.6450    5.8370 hc        1 MOL      0.031121
     95 H40         0.0040   -2.6660    4.9270 hc        1 MOL      0.031121
     96 H41         3.6320   -2.7700    2.7310 hc        1 MOL      0.043133
     97 H42         2.8370   -1.2630    3.3490 hc        1 MOL      0.043133
     98 H43         3.5640   -2.4610    4.4810 hc        1 MOL      0.043133
     99 H44         0.5490   -0.5540    6.0960 hc        1 MOL      0.001605
    100 H45         1.9550   -0.2960    5.1700 hc        1 MOL      0.001605
    101 H46         0.2830   -0.3690    4.3870 hc        1 MOL      0.001605
    102 N10         1.8170   -2.0160    0.3770 n         1 MOL     -0.163234
    103 C32         2.7430   -2.0990   -0.7490 c3        1 MOL      0.286090
    104 C33         4.1960   -1.6960   -0.3920 c         1 MOL      0.160044
    105 O16         4.4590   -0.9220    0.5030 o         1 MOL     -0.111155
    106 C34         2.1060   -1.3200   -1.8540 c3        1 MOL     -0.316638
    107 C35         0.6240   -1.6300   -2.0930 c         1 MOL      0.759996
    108 O17        -0.2180   -1.0700   -1.3580 o         1 MOL     -0.678913
    109 O18         0.2330   -2.4180   -3.0010 o         1 MOL     -0.678913
    110 H47         1.4770   -1.1030    0.6520 hn        1 MOL     -0.124284
    111 H48         2.7600   -3.1430   -1.0370 h1        1 MOL      0.011541
    112 H49         2.6810   -1.5790   -2.7540 hc        1 MOL      0.053310
    113 H50         2.3140   -0.2570   -1.7420 hc        1 MOL      0.053310
    114 N11         5.1680   -2.0070   -1.2550 n         1 MOL     -0.438570
    115 C36         6.5930   -1.6470   -1.1410 c3        1 MOL      0.164975
    116 C37         6.7940   -0.1480   -0.9790 c         1 MOL      0.447071
    117 O19         7.5840    0.2240   -0.1270 o         1 MOL     -0.514230
    118 C38         7.3310   -2.0400   -2.4430 c3        1 MOL     -0.115426
    119 C39         8.7960   -1.7050   -2.5390 ca        1 MOL      0.060743
    120 C40         9.7600   -2.0750   -1.5510 ca        1 MOL     -0.162013
    121 C41         9.1470   -0.9340   -3.6710 ca        1 MOL     -0.162013
    122 C42        11.0610   -1.5500   -1.6430 ca        1 MOL     -0.137288
    123 C43        10.3590   -0.3090   -3.6900 ca        1 MOL     -0.137288
    124 C44        11.2410   -0.5280   -2.5830 ca        1 MOL     -0.036748
    125 H51         4.9710   -2.6070   -2.0370 hn        1 MOL      0.299665
    126 H52         7.0900   -2.1760   -0.3320 h1        1 MOL      0.071389
    127 H53         6.8430   -1.7440   -3.3700 hc        1 MOL      0.028042
    128 H54         7.2360   -3.1280   -2.3680 hc        1 MOL      0.028042
    129 H55         9.5680   -2.6670   -0.6640 ha        1 MOL      0.131914
    130 H56         8.4400   -0.6780   -4.4440 ha        1 MOL      0.131914
    131 H57        11.8560   -1.7240   -0.9300 ha        1 MOL      0.122823
    132 H58        10.5750    0.3730   -4.5010 ha        1 MOL      0.122823
    133 H59        12.2620   -0.2060   -2.6970 ha        1 MOL      0.057924
    134 N12         6.0690    0.7840   -1.6930 n         1 MOL     -0.154978
    135 C45         6.1360    2.2010   -1.3750 c3        1 MOL      0.128135
    136 C46         5.7850    2.5410    0.0990 c         1 MOL      0.275626
    137 O20         6.3010    3.5340    0.6330 o         1 MOL     -0.520968
    138 C47         5.2740    2.8640   -2.4650 c3        1 MOL     -0.008094
    139 C48         4.4140    1.8480   -3.1470 c3        1 MOL     -0.200097
    140 C49         5.2360    0.6290   -2.8810 c3        1 MOL      0.040344
    141 H60         7.1870    2.4930   -1.4960 h1        1 MOL      0.015716
    142 H61         4.6410    3.6050   -1.9700 hc        1 MOL      0.015643
    143 H62         5.9910    3.3540   -3.1210 hc        1 MOL      0.015643
    144 H63         3.4670    1.7060   -2.6150 hc        1 MOL      0.102402
    145 H64         4.3630    2.0660   -4.2130 hc        1 MOL      0.102402
    146 H65         4.5500   -0.1990   -2.6580 h1        1 MOL      0.013136
    147 H66         5.9000    0.4690   -3.7310 h1        1 MOL      0.013136
    148 N13         4.7690    1.8990    0.5810 n         1 MOL     -0.172266
    149 C50         4.1700    2.0810    1.9960 c3        1 MOL     -0.110505
    150 C51         4.9280    1.3700    3.0870 c         1 MOL      0.501606
    151 O21         4.9890    1.9110    4.1830 o         1 MOL     -0.576654
    152 C52         2.7250    1.6110    1.8750 c3        1 MOL      0.086290
    153 C53         1.8960    2.1640    0.6700 c3        1 MOL     -0.027072
    154 C54         0.4760    1.5840    0.5350 c         1 MOL      0.656106
    155 O22         0.0250    0.7680    1.3880 o         1 MOL     -0.735188
    156 O23        -0.2610    1.9550   -0.4360 o         1 MOL     -0.735188
    157 H67         4.4000    1.1670   -0.0200 hn        1 MOL      0.296843
    158 H68         4.1000    3.1280    2.2930 h1        1 MOL      0.112771
    159 H69         2.1730    1.8120    2.7880 hc        1 MOL      0.003851
    160 H70         2.7270    0.5370    1.6530 hc        1 MOL      0.003851
    161 H71         2.3960    2.0970   -0.3040 hc        1 MOL      0.012108
    162 H72         1.7560    3.2340    0.8400 hc        1 MOL      0.012108
    163 N14         5.5600    0.2890    2.7140 n         1 MOL     -0.018602
    164 C55         6.5360   -0.3750    3.5760 c3        1 MOL     -0.255930
    165 H73         6.0180   -1.0370    4.2690 h1        1 MOL      0.090142
    166 H74         7.2240   -0.9590    2.9630 h1        1 MOL      0.090142
    167 H75         7.0950    0.3740    4.1380 h1        1 MOL      0.090142
    168 H76         5.3760   -0.1190    1.8130 hn        1 MOL     -0.046985
    169 Ca1        -2.2280    0.0420   -0.0740 Ca        1 MOL      1.701100
    170 O24        -2.2630   -0.0330    2.7170 oh        1 MOL     -0.772813
    171 H77        -1.3090   -0.0020    2.7360 ho        1 MOL      0.376920
    172 H78        -2.5010   -0.6330    3.4260 ho        1 MOL      0.376920
    173 O25        -4.7550   -0.5250    1.0290 oh        1 MOL     -0.772813
    174 H79        -4.9290   -1.1710    1.7180 ho        1 MOL      0.376920
    175 H80        -5.0010    0.3090    1.4090 ho        1 MOL      0.376920
@<TRIPOS>BOND
     1    1    2 1   
     2    1    4 1   
     3    1    5 1   
     4    1    6 1   
     5    2    3 2   
     6    2    7 1   
     7    7    8 1   
     8    7   15 1   
     9    8    9 1   
    10    8   11 1   
    11    8   16 1   
    12    9   10 2   
    13    9   19 1   
    14   11   12 1   
    15   11   17 1   
    16   11   18 1   
    17   12   13 1   
    18   12   14 1   
    19   19   20 1   
    20   19   24 1   
    21   20   21 1   
    22   20   23 1   
    23   20   25 1   
    24   21   22 2   
    25   21   29 1   
    26   23   26 1   
    27   23   27 1   
    28   23   28 1   
    29   29   30 1   
    30   29   37 1   
    31   30   31 1   
    32   30   33 1   
    33   30   38 1   
    34   31   32 2   
    35   31   41 1   
    36   33   34 1   
    37   33   39 1   
    38   33   40 1   
    39   34   35 1   
    40   34   36 1   
    41   41   42 1   
    42   41   45 1   
    43   42   43 1   
    44   42   46 1   
    45   42   47 1   
    46   43   44 2   
    47   43   48 1   
    48   48   49 1   
    49   48   56 1   
    50   49   50 1   
    51   49   52 1   
    52   49   57 1   
    53   50   51 2   
    54   50   62 1   
    55   52   53 1   
    56   52   58 1   
    57   52   59 1   
    58   53   54 1   
    59   53   55 2   
    60   54   60 1   
    61   54   61 1   
    62   62   63 1   
    63   62   66 1   
    64   63   64 1   
    65   63   67 1   
    66   63   68 1   
    67   64   65 2   
    68   64   69 1   
    69   69   70 1   
    70   69   76 1   
    71   70   71 1   
    72   70   73 1   
    73   70   77 1   
    74   71   72 2   
    75   71   83 1   
    76   73   74 1   
    77   73   75 1   
    78   73   78 1   
    79   74   80 1   
    80   74   81 1   
    81   74   82 1   
    82   75   79 1   
    83   83   84 1   
    84   83   91 1   
    85   84   85 1   
    86   84   87 1   
    87   84   92 1   
    88   85   86 2   
    89   85  102 1   
    90   87   88 1   
    91   87   89 1   
    92   87   93 1   
    93   88   90 1   
    94   88   94 1   
    95   88   95 1   
    96   89   96 1   
    97   89   97 1   
    98   89   98 1   
    99   90   99 1   
   100   90  100 1   
   101   90  101 1   
   102  102  103 1   
   103  102  110 1   
   104  103  104 1   
   105  103  106 1   
   106  103  111 1   
   107  104  105 2   
   108  104  114 1   
   109  106  107 1   
   110  106  112 1   
   111  106  113 1   
   112  107  108 1   
   113  107  109 1   
   114  114  115 1   
   115  114  125 1   
   116  115  116 1   
   117  115  118 1   
   118  115  126 1   
   119  116  117 2   
   120  116  134 1   
   121  118  119 1   
   122  118  127 1   
   123  118  128 1   
   124  119  120 ar  
   125  119  121 ar  
   126  120  122 ar  
   127  120  129 1   
   128  121  123 ar  
   129  121  130 1   
   130  122  124 ar  
   131  122  131 1   
   132  123  124 ar  
   133  123  132 1   
   134  124  133 1   
   135  134  135 1   
   136  134  140 1   
   137  135  136 1   
   138  135  138 1   
   139  135  141 1   
   140  136  137 2   
   141  136  148 1   
   142  138  139 1   
   143  138  142 1   
   144  138  143 1   
   145  139  140 1   
   146  139  144 1   
   147  139  145 1   
   148  140  146 1   
   149  140  147 1   
   150  148  149 1   
   151  148  157 1   
   152  149  150 1   
   153  149  152 1   
   154  149  158 1   
   155  150  151 2   
   156  150  163 1   
   157  152  153 1   
   158  152  159 1   
   159  152  160 1   
   160  153  154 1   
   161  153  161 1   
   162  153  162 1   
   163  154  155 1   
   164  154  156 1   
   165  163  164 1   
   166  163  168 1   
   167  164  165 1   
   168  164  166 1   
   169  164  167 1   
   170  170  171 1   
   171  170  172 1   
   172  173  174 1   
   173  173  175 1   
@<TRIPOS>SUBSTRUCTURE
     1 MOL         1 TEMP              0 ****  ****    0 ROOT
