@<TRIPOS>MOLECULE
MOL
  189   185     1     0     0
SMALL
resp


@<TRIPOS>ATOM
      1 C1         -0.2820    4.0750   -4.2320 c3        1 MOL     -0.305534
      2 C2          0.3320    3.5300   -3.0220 c         1 MOL      0.625824
      3 O1         -0.0640    3.8050   -1.8830 o         1 MOL     -0.601288
      4 H1         -0.0670    5.1420   -4.2990 hc        1 MOL      0.084456
      5 H2          0.1250    3.5680   -5.1060 hc        1 MOL      0.084456
      6 H3         -1.3610    3.9220   -4.1920 hc        1 MOL      0.084456
      7 N1          1.4150    2.7520   -3.1980 n         1 MOL     -0.622736
      8 C3          2.1450    2.0200   -2.1620 c3        1 MOL      0.466997
      9 C4          3.1650    2.7080   -1.2620 c         1 MOL      0.256577
     10 O2          4.3800    2.5550   -1.3440 o         1 MOL     -0.422583
     11 C5          2.8300    0.7380   -2.6910 c3        1 MOL     -0.445252
     12 C6          3.4750   -0.0760   -1.6420 c         1 MOL      0.814474
     13 O3          3.0160   -0.0320   -0.4490 o         1 MOL     -0.679006
     14 O4          4.5540   -0.6370   -1.8510 o         1 MOL     -0.679006
     15 H4          1.7510    2.7010   -4.1510 hn        1 MOL      0.312353
     16 H5          1.4460    1.5060   -1.5050 h1        1 MOL      0.019852
     17 H6          3.6200    1.0770   -3.3740 hc        1 MOL      0.075599
     18 H7          2.0710    0.0890   -3.1260 hc        1 MOL      0.075599
     19 N2          2.5890    3.6900   -0.5250 n         1 MOL     -0.331441
     20 C7          3.3130    4.8440    0.0600 c3        1 MOL     -0.059612
     21 C8          4.1880    4.4250    1.2960 c         1 MOL      0.399385
     22 O5          4.9400    5.2670    1.7590 o         1 MOL     -0.578630
     23 C9          2.1430    5.7410    0.5810 c3        1 MOL     -0.207034
     24 C10         1.5940    6.7640   -0.4880 c3        1 MOL      0.086103
     25 C11         2.3370    7.9930   -0.4380 c3        1 MOL     -0.037436
     26 C12         1.6730    9.1050   -1.2860 c3        1 MOL      0.017294
     27 N3          1.5190    8.8680   -2.7620 n4        1 MOL     -0.377339
     28 H8          1.5790    3.7410   -0.5810 hn        1 MOL      0.324478
     29 H9          3.8910    5.3680   -0.7070 h1        1 MOL      0.115770
     30 H10         2.3870    6.4070    1.4110 hc        1 MOL      0.104904
     31 H11         1.3300    5.1000    0.9280 hc        1 MOL      0.104904
     32 H12         0.5220    6.9420   -0.4600 hc        1 MOL     -0.005376
     33 H13         1.7540    6.2750   -1.4510 hc        1 MOL     -0.005376
     34 H14         3.3560    7.7880   -0.7680 hc        1 MOL      0.053781
     35 H15         2.4260    8.3520    0.5890 hc        1 MOL      0.053781
     36 H16         2.2630    9.9950   -1.0770 hx        1 MOL      0.077647
     37 H17         0.6530    9.3160   -0.9480 hx        1 MOL      0.077647
     38 H18         2.3820    8.6010   -3.2340 hn        1 MOL      0.333170
     39 H19         0.7230    8.2680   -2.9330 hn        1 MOL      0.333170
     40 H20         1.1510    9.7280   -3.1510 hn        1 MOL      0.333170
     41 N4          4.1190    3.2190    1.7640 n         1 MOL     -0.097774
     42 C13         4.9770    2.7260    2.8500 c3        1 MOL      0.117518
     43 C14         6.0290    1.6820    2.4000 c         1 MOL      0.405615
     44 O6          6.6390    1.0970    3.3370 o         1 MOL     -0.459305
     45 C15         4.0760    2.3730    4.0070 c3        1 MOL     -0.326512
     46 C16         3.0660    1.3130    3.6830 c         1 MOL      0.921570
     47 O7          2.0400    1.2500    4.3990 o         1 MOL     -0.742064
     48 O8          3.0270    0.6250    2.6840 o         1 MOL     -0.742064
     49 H21         3.5630    2.5460    1.2570 hn        1 MOL      0.120650
     50 H22         5.6540    3.5070    3.1750 h1        1 MOL      0.085158
     51 H23         3.5020    3.2450    4.2930 hc        1 MOL      0.063342
     52 H24         4.7630    1.9630    4.7530 hc        1 MOL      0.063342
     53 N5          6.2420    1.4190    1.1040 n         1 MOL     -0.328391
     54 C17         7.5120    0.7990    0.5970 c3        1 MOL     -0.004633
     55 C18         7.6250   -0.6000    0.9820 c         1 MOL      0.461611
     56 O9          8.4990   -0.9930    1.7640 o         1 MOL     -0.524652
     57 H25         5.5520    1.6330    0.4000 hn        1 MOL      0.197792
     58 H26         8.3820    1.3170    1.0220 h1        1 MOL      0.067389
     59 H27         7.6590    0.9300   -0.4770 h1        1 MOL      0.067389
     60 N6          6.6310   -1.4700    0.6480 n         1 MOL     -0.519864
     61 C19         6.5230   -2.8650    1.1630 c3        1 MOL      0.115518
     62 C20         6.1500   -3.8550    0.0240 c         1 MOL      0.372614
     63 O10         6.1760   -5.1030    0.1730 o         1 MOL     -0.531930
     64 C21         5.5700   -3.0300    2.3110 c3        1 MOL     -0.181294
     65 C22         4.1360   -2.7300    1.9250 c         1 MOL      0.708920
     66 O11         3.6780   -2.6430    0.7850 o         1 MOL     -0.721767
     67 O12         3.3560   -2.5110    2.8610 o         1 MOL     -0.721767
     68 H28         5.8800   -1.0900    0.0870 hn        1 MOL      0.345021
     69 H29         7.5250   -3.2040    1.4350 h1        1 MOL      0.096195
     70 H30         5.8060   -2.2310    3.0210 hc        1 MOL      0.082023
     71 H31         5.7740   -3.9490    2.8500 hc        1 MOL      0.082023
     72 N7          5.9430   -3.3110   -1.1600 n         1 MOL     -0.235467
     73 C23         5.7160   -4.0790   -2.4610 c3        1 MOL     -0.201825
     74 C24         4.3670   -4.6620   -2.5900 c         1 MOL      0.547153
     75 O13         4.1900   -5.6510   -3.3010 o         1 MOL     -0.569779
     76 H32         5.8980   -2.3020   -1.2320 hn        1 MOL      0.223294
     77 H33         6.4010   -4.9240   -2.4420 h1        1 MOL      0.112552
     78 H34         5.9360   -3.4020   -3.2800 h1        1 MOL      0.112552
     79 N8          3.3920   -4.1570   -1.8270 n         1 MOL     -0.030569
     80 C25         2.0140   -4.5680   -1.8150 c3        1 MOL     -0.661785
     81 C26         1.0370   -3.3700   -1.6590 c         1 MOL      0.875582
     82 O14         1.1110   -2.6670   -0.6710 o         1 MOL     -0.708215
     83 C27         1.6510   -5.4740   -0.6940 c3        1 MOL      0.554467
     84 C28         2.1670   -6.8960   -0.9880 c3        1 MOL     -0.579973
     85 O15         2.3130   -5.0640    0.4450 oh        1 MOL     -0.628334
     86 H35         3.5950   -3.2540   -1.4260 hn        1 MOL      0.159865
     87 H36         1.8170   -5.1710   -2.6990 h1        1 MOL      0.189142
     88 H37         0.5900   -5.4550   -0.4290 h1        1 MOL     -0.035159
     89 H38         2.5150   -4.1270    0.4000 ho        1 MOL      0.476636
     90 H39         3.2430   -6.8840   -1.1330 hc        1 MOL      0.158514
     91 H40         1.9860   -7.5610   -0.1370 hc        1 MOL      0.158514
     92 H41         1.7030   -7.2910   -1.8860 hc        1 MOL      0.158514
     93 N9          0.1410   -3.1750   -2.6680 n         1 MOL     -0.580331
     94 C29        -1.0290   -2.2490   -2.5630 c3        1 MOL      0.081978
     95 C30        -2.1800   -2.7330   -1.6800 c         1 MOL      0.580785
     96 O16        -2.5680   -3.8670   -1.9800 o         1 MOL     -0.602652
     97 C31        -1.4730   -1.6740   -3.9100 c3        1 MOL      0.058046
     98 C32        -0.3630   -1.0560   -4.7010 c3        1 MOL      0.232639
     99 C33        -2.7220   -0.6520   -3.7750 c3        1 MOL     -0.232013
    100 C34        -0.5790   -0.8990   -6.2240 c3        1 MOL     -0.175309
    101 H42         0.2340   -3.7620   -3.4810 hn        1 MOL      0.303130
    102 H43        -0.6130   -1.4430   -1.9550 h1        1 MOL      0.036426
    103 H44        -1.8500   -2.4780   -4.5310 hc        1 MOL      0.012502
    104 H45         0.5530   -1.6370   -4.6340 hc        1 MOL     -0.041665
    105 H46        -0.0980   -0.0520   -4.3600 hc        1 MOL     -0.041665
    106 H47        -3.6160   -1.1310   -3.3900 hc        1 MOL      0.037809
    107 H48        -2.3880    0.1960   -3.1550 hc        1 MOL      0.037809
    108 H49        -2.9380   -0.1370   -4.7180 hc        1 MOL      0.037809
    109 H50         0.3020   -0.4000   -6.6270 hc        1 MOL      0.028670
    110 H51        -0.6730   -1.8930   -6.6580 hc        1 MOL      0.028670
    111 H52        -1.5330   -0.4000   -6.4480 hc        1 MOL      0.028670
    112 N10        -2.7040   -2.0810   -0.6710 n         1 MOL     -0.267770
    113 C35        -3.9250   -2.4130    0.0310 c3        1 MOL      0.174436
    114 C36        -5.2150   -1.8370   -0.5910 c         1 MOL      0.235295
    115 O17        -5.1670   -0.8330   -1.3240 o         1 MOL     -0.208188
    116 C37        -3.9440   -1.9820    1.4850 c3        1 MOL     -0.021428
    117 C38        -2.8620   -2.6530    2.3540 c3        1 MOL     -0.104815
    118 O18        -3.6460   -0.6020    1.6670 oh        1 MOL     -0.233991
    119 H53        -2.2650   -1.2240   -0.3750 hn        1 MOL      0.178686
    120 H54        -4.1040   -3.4880    0.0280 h1        1 MOL      0.046546
    121 H55        -4.8900   -2.2810    1.9200 h1        1 MOL      0.008077
    122 H56        -3.4620   -0.5540    2.6020 ho        1 MOL      0.307261
    123 H57        -2.9700   -2.3750    3.4010 hc        1 MOL      0.034867
    124 H58        -3.0550   -3.7190    2.3550 hc        1 MOL      0.034867
    125 H59        -1.8810   -2.3490    1.9970 hc        1 MOL      0.034867
    126 N11        -6.3970   -2.4230   -0.3570 n         1 MOL     -0.331599
    127 C39        -7.6700   -1.7200   -0.7570 c3        1 MOL     -0.131238
    128 C40        -7.6540   -0.2590   -0.2490 c         1 MOL      0.478685
    129 O19        -8.0490    0.6020   -1.0300 o         1 MOL     -0.486538
    130 C41        -8.9460   -2.4950   -0.4010 c3        1 MOL      0.427362
    131 C42        -9.0430   -3.9070   -0.8100 c3        1 MOL     -0.491212
    132 O20        -8.9370   -2.4570    0.9620 oh        1 MOL     -0.640881
    133 H60        -6.4250   -3.2230    0.2610 hn        1 MOL      0.294150
    134 H61        -7.6170   -1.5870   -1.8390 h1        1 MOL      0.103241
    135 H62        -9.7720   -1.8660   -0.7200 h1        1 MOL      0.011213
    136 H63        -9.7670   -2.1150    1.2880 ho        1 MOL      0.400952
    137 H64        -9.1050   -4.0280   -1.8870 hc        1 MOL      0.136986
    138 H65        -8.3080   -4.6110   -0.4160 hc        1 MOL      0.136986
    139 H66        -9.9730   -4.1980   -0.3140 hc        1 MOL      0.136986
    140 N12        -7.1700    0.0400    0.9640 n         1 MOL     -0.376004
    141 C43        -7.0010    1.4190    1.5820 c3        1 MOL     -0.003577
    142 C44        -6.1460    2.2200    0.6390 c         1 MOL      0.349682
    143 O21        -6.5100    3.3100    0.2590 o         1 MOL     -0.493368
    144 C45        -6.3960    1.3050    2.9570 c3        1 MOL     -0.060992
    145 C46        -7.3620    0.7550    4.0050 c3        1 MOL      0.060185
    146 C47        -6.7170    0.5600    5.4280 c3        1 MOL     -0.019846
    147 C48        -5.8970   -0.6750    5.5090 c3        1 MOL      0.113244
    148 N13        -5.2320   -0.8120    6.8280 n4        1 MOL     -0.370835
    149 H67        -6.8620   -0.7260    1.5340 hn        1 MOL      0.246017
    150 H68        -7.9460    1.9520    1.5700 h1        1 MOL      0.125764
    151 H69        -5.9670    2.2650    3.2540 hc        1 MOL      0.038046
    152 H70        -5.5080    0.6720    2.9750 hc        1 MOL      0.038046
    153 H71        -7.5900   -0.2430    3.6070 hc        1 MOL      0.002156
    154 H72        -8.3080    1.2980    4.0380 hc        1 MOL      0.002156
    155 H73        -7.5300    0.3990    6.1380 hc        1 MOL      0.027144
    156 H74        -6.1520    1.4280    5.7360 hc        1 MOL      0.027144
    157 H75        -5.0640   -0.5460    4.8160 hx        1 MOL      0.043712
    158 H76        -6.5450   -1.5140    5.2650 hx        1 MOL      0.043712
    159 H77        -4.5640   -1.5640    6.7100 hn        1 MOL      0.303181
    160 H78        -4.7970    0.0420    7.1400 hn        1 MOL      0.303181
    161 H79        -5.8860   -1.0270    7.5690 hn        1 MOL      0.303181
    162 N14        -4.9320    1.7630    0.2510 n         1 MOL      0.056622
    163 C49        -3.9750    2.4760   -0.5670 c3        1 MOL     -0.135501
    164 C50        -4.5120    2.7340   -1.9590 c         1 MOL      0.417312
    165 O22        -4.2690    3.8230   -2.4740 o         1 MOL     -0.556758
    166 C51        -2.6590    1.7540   -0.6850 c3        1 MOL      0.088818
    167 C52        -1.8480    1.8830    0.6350 c3        1 MOL     -0.170578
    168 C53        -0.6420    0.9250    0.7340 c         1 MOL      0.586945
    169 O23         0.4500    1.3420    1.0750 o         1 MOL     -0.704006
    170 O24        -0.7700   -0.2880    0.4940 o         1 MOL     -0.704006
    171 H80        -4.6750    0.8230    0.5430 hn        1 MOL     -0.198971
    172 H81        -3.8090    3.4570   -0.1040 h1        1 MOL      0.093560
    173 H82        -2.0940    2.1440   -1.5340 hc        1 MOL      0.072304
    174 H83        -2.8920    0.6920   -0.7980 hc        1 MOL      0.072304
    175 H84        -2.4920    1.7720    1.5110 hc        1 MOL      0.033520
    176 H85        -1.5240    2.9200    0.6820 hc        1 MOL      0.033520
    177 N15        -5.2600    1.7720   -2.5700 n         1 MOL      0.020016
    178 C54        -5.7220    2.0380   -3.8970 c3        1 MOL     -0.213881
    179 H86        -5.6270    3.1030   -4.1070 h1        1 MOL      0.079362
    180 H87        -5.1230    1.4720   -4.6120 h1        1 MOL      0.079362
    181 H88        -6.7670    1.7430   -3.9850 h1        1 MOL      0.079362
    182 H89        -5.2010    0.8910   -2.0740 hn        1 MOL      0.033532
    183 Ca1         1.6840   -1.0360    1.3040 Ca        1 MOL      1.733119
    184 O25         0.2000   -0.4670    3.5880 oh        1 MOL     -0.793989
    185 H90        -0.3990    0.2020    3.2480 ho        1 MOL      0.372359
    186 H91         0.8830    0.0270    4.0360 ho        1 MOL      0.372359
    187 O26         0.6260   -3.5770    2.0170 oh        1 MOL     -0.793989
    188 H92         0.0330   -3.9780    2.6600 ho        1 MOL      0.372359
    189 H93         1.1220   -4.3190    1.6640 ho        1 MOL      0.372359
@<TRIPOS>BOND
     1    1    2 1   
     2    1    4 1   
     3    1    5 1   
     4    1    6 1   
     5    2    3 2   
     6    2    7 1   
     7    7    8 1   
     8    7   15 1   
     9    8    9 1   
    10    8   11 1   
    11    8   16 1   
    12    9   10 2   
    13    9   19 1   
    14   11   12 1   
    15   11   17 1   
    16   11   18 1   
    17   12   13 1   
    18   12   14 1   
    19   19   20 1   
    20   19   28 1   
    21   20   21 1   
    22   20   23 1   
    23   20   29 1   
    24   21   22 2   
    25   21   41 1   
    26   23   24 1   
    27   23   30 1   
    28   23   31 1   
    29   24   25 1   
    30   24   32 1   
    31   24   33 1   
    32   25   26 1   
    33   25   34 1   
    34   25   35 1   
    35   26   27 1   
    36   26   36 1   
    37   26   37 1   
    38   27   38 1   
    39   27   39 1   
    40   27   40 1   
    41   41   42 1   
    42   41   49 1   
    43   42   43 1   
    44   42   45 1   
    45   42   50 1   
    46   43   44 2   
    47   43   53 1   
    48   45   46 1   
    49   45   51 1   
    50   45   52 1   
    51   46   47 1   
    52   46   48 1   
    53   53   54 1   
    54   53   57 1   
    55   54   55 1   
    56   54   58 1   
    57   54   59 1   
    58   55   56 2   
    59   55   60 1   
    60   60   61 1   
    61   60   68 1   
    62   61   62 1   
    63   61   64 1   
    64   61   69 1   
    65   62   63 2   
    66   62   72 1   
    67   64   65 1   
    68   64   70 1   
    69   64   71 1   
    70   65   66 1   
    71   65   67 1   
    72   72   73 1   
    73   72   76 1   
    74   73   74 1   
    75   73   77 1   
    76   73   78 1   
    77   74   75 2   
    78   74   79 1   
    79   79   80 1   
    80   79   86 1   
    81   80   81 1   
    82   80   83 1   
    83   80   87 1   
    84   81   82 2   
    85   81   93 1   
    86   83   84 1   
    87   83   85 1   
    88   83   88 1   
    89   84   90 1   
    90   84   91 1   
    91   84   92 1   
    92   85   89 1   
    93   93   94 1   
    94   93  101 1   
    95   94   95 1   
    96   94   97 1   
    97   94  102 1   
    98   95   96 2   
    99   95  112 1   
   100   97   98 1   
   101   97   99 1   
   102   97  103 1   
   103   98  100 1   
   104   98  104 1   
   105   98  105 1   
   106   99  106 1   
   107   99  107 1   
   108   99  108 1   
   109  100  109 1   
   110  100  110 1   
   111  100  111 1   
   112  112  113 1   
   113  112  119 1   
   114  113  114 1   
   115  113  116 1   
   116  113  120 1   
   117  114  115 2   
   118  114  126 1   
   119  116  117 1   
   120  116  118 1   
   121  116  121 1   
   122  117  123 1   
   123  117  124 1   
   124  117  125 1   
   125  118  122 1   
   126  126  127 1   
   127  126  133 1   
   128  127  128 1   
   129  127  130 1   
   130  127  134 1   
   131  128  129 2   
   132  128  140 1   
   133  130  131 1   
   134  130  132 1   
   135  130  135 1   
   136  131  137 1   
   137  131  138 1   
   138  131  139 1   
   139  132  136 1   
   140  140  141 1   
   141  140  149 1   
   142  141  142 1   
   143  141  144 1   
   144  141  150 1   
   145  142  143 2   
   146  142  162 1   
   147  144  145 1   
   148  144  151 1   
   149  144  152 1   
   150  145  146 1   
   151  145  153 1   
   152  145  154 1   
   153  146  147 1   
   154  146  155 1   
   155  146  156 1   
   156  147  148 1   
   157  147  157 1   
   158  147  158 1   
   159  148  159 1   
   160  148  160 1   
   161  148  161 1   
   162  162  163 1   
   163  162  171 1   
   164  163  164 1   
   165  163  166 1   
   166  163  172 1   
   167  164  165 2   
   168  164  177 1   
   169  166  167 1   
   170  166  173 1   
   171  166  174 1   
   172  167  168 1   
   173  167  175 1   
   174  167  176 1   
   175  168  169 1   
   176  168  170 1   
   177  177  178 1   
   178  177  182 1   
   179  178  179 1   
   180  178  180 1   
   181  178  181 1   
   182  184  185 1   
   183  184  186 1   
   184  187  188 1   
   185  187  189 1   
@<TRIPOS>SUBSTRUCTURE
     1 MOL         1 TEMP              0 ****  ****    0 ROOT
