@<TRIPOS>MOLECULE
MOL
  186   183     1     0     0
SMALL
resp


@<TRIPOS>ATOM
      1 C1          0.8430   -1.4820    6.5890 c3        1 MOL     -0.319424
      2 C2          1.0080   -1.6870    5.1100 c         1 MOL      0.719434
      3 O1          0.0370   -1.9220    4.3770 o         1 MOL     -0.576271
      4 H1          1.7080   -0.9480    6.9800 hc        1 MOL      0.070580
      5 H2         -0.0590   -0.8990    6.7760 hc        1 MOL      0.070580
      6 H3          0.7590   -2.4500    7.0830 hc        1 MOL      0.070580
      7 N1          2.1660   -1.4030    4.5700 n         1 MOL     -0.608677
      8 C3          2.5760   -1.3750    3.1570 c3        1 MOL      0.148626
      9 C4          2.9450   -2.8150    2.8110 c         1 MOL      0.445364
     10 O2          3.7840   -3.4620    3.5090 o         1 MOL     -0.572960
     11 C5          3.6540   -0.3150    2.9550 c3        1 MOL     -0.188216
     12 C6          4.4540   -0.5120    1.6920 c         1 MOL      0.985597
     13 O3          5.7240   -0.2740    1.7590 o         1 MOL     -0.789235
     14 O4          3.8470   -0.8420    0.6600 o         1 MOL     -0.789235
     15 H4          2.8390   -1.0990    5.2590 hn        1 MOL      0.321202
     16 H5          1.7480   -1.0400    2.5390 h1        1 MOL      0.082233
     17 H6          4.3950   -0.3640    3.7480 hc        1 MOL      0.017286
     18 H7          3.2140    0.6800    2.9600 hc        1 MOL      0.017286
     19 N2          2.4010   -3.2680    1.6780 n         1 MOL     -0.065812
     20 C7          2.3160   -4.6590    1.3680 c3        1 MOL     -0.050287
     21 C8          3.1650   -4.9570    0.1080 c         1 MOL      0.442645
     22 O5          3.8880   -6.0000    0.1640 o         1 MOL     -0.597658
     23 C9          0.8080   -5.1170    1.2180 c3        1 MOL      0.353909
     24 C10         0.1770   -5.1590    2.6630 c3        1 MOL      0.092937
     25 C11         0.6060   -6.4820    0.5430 c3        1 MOL     -0.495958
     26 C12        -1.3100   -5.4840    2.5940 c3        1 MOL     -0.105188
     27 H8          1.9000   -2.6540    1.0440 hn        1 MOL     -0.040533
     28 H9          2.6870   -5.2870    2.1810 h1        1 MOL      0.040753
     29 H10         0.3410   -4.3380    0.6180 hc        1 MOL     -0.003661
     30 H11         0.3280   -4.2110    3.1850 hc        1 MOL     -0.046560
     31 H12         0.6940   -5.9840    3.1670 hc        1 MOL     -0.046560
     32 H13        -0.3360   -6.4290   -0.0050 hc        1 MOL      0.109022
     33 H14         1.3840   -6.6080   -0.2030 hc        1 MOL      0.109022
     34 H15         0.6370   -7.2460    1.3210 hc        1 MOL      0.109022
     35 H16        -1.8610   -4.7430    2.0080 hc        1 MOL      0.010569
     36 H17        -1.4670   -6.4970    2.2210 hc        1 MOL      0.010569
     37 H18        -1.7750   -5.3920    3.5740 hc        1 MOL      0.010569
     38 N3          3.1320   -4.1320   -0.9160 n         1 MOL     -0.232197
     39 C13         3.9930   -4.3570   -2.0470 c3        1 MOL      0.022187
     40 C14         5.2850   -3.4870   -1.8600 c         1 MOL      0.417316
     41 O6          6.1140   -3.5520   -2.7760 o         1 MOL     -0.515814
     42 C15         3.2530   -4.1270   -3.3890 c3        1 MOL     -0.218071
     43 C16         2.6360   -2.8120   -3.5990 c         1 MOL      0.859196
     44 O7          2.8110   -1.8940   -2.7680 o         1 MOL     -0.745201
     45 O8          1.8570   -2.6140   -4.5670 o         1 MOL     -0.745201
     46 H19         2.4630   -3.3740   -0.9610 hn        1 MOL      0.186402
     47 H20         4.3410   -5.3850   -2.1130 h1        1 MOL      0.086969
     48 H21         2.5210   -4.9290   -3.5250 hc        1 MOL      0.046770
     49 H22         3.9990   -4.2400   -4.1780 hc        1 MOL      0.046770
     50 N4          5.5620   -2.8660   -0.6910 n         1 MOL     -0.100446
     51 C17         6.9420   -2.6390   -0.2370 c3        1 MOL     -0.345236
     52 C18         7.6430   -1.4070   -0.8570 c         1 MOL      0.674090
     53 O9          8.7160   -1.4500   -1.5250 o         1 MOL     -0.603248
     54 H23         4.7980   -2.7830   -0.0360 hn        1 MOL      0.181561
     55 H24         7.5170   -3.5420   -0.4480 h1        1 MOL      0.116124
     56 H25         6.7970   -2.4860    0.8350 h1        1 MOL      0.116124
     57 N5          7.0550   -0.2480   -0.5810 n         1 MOL     -0.454373
     58 C19         7.4020    1.0140   -1.2680 c3        1 MOL     -0.015556
     59 C20         7.2650    2.2780   -0.3530 c         1 MOL      0.492520
     60 O10         7.6220    3.3740   -0.7800 o         1 MOL     -0.569417
     61 C21         6.5640    1.1750   -2.5960 c3        1 MOL      0.041748
     62 C22         5.0640    1.0800   -2.2920 c         1 MOL      0.539741
     63 O11         4.2750    0.4900   -3.0210 o         1 MOL     -0.676187
     64 O12         4.6650    1.6340   -1.2290 o         1 MOL     -0.676187
     65 H26         6.5310   -0.1900    0.2760 hn        1 MOL      0.244906
     66 H27         8.4380    0.9020   -1.5800 h1        1 MOL      0.061734
     67 H28         6.8990    0.5040   -3.3810 hc        1 MOL      0.011620
     68 H29         6.8670    2.1170   -3.0610 hc        1 MOL      0.011620
     69 N6          6.8680    2.1010    0.9210 n         1 MOL     -0.384197
     70 C23         6.7900    3.3450    1.7760 c3        1 MOL     -0.186943
     71 C24         5.4810    4.1290    1.7260 c         1 MOL      0.521795
     72 O13         5.3630    5.0770    2.4710 o         1 MOL     -0.614748
     73 H30         6.5300    1.2230    1.2800 hn        1 MOL      0.344972
     74 H31         7.6770    3.9280    1.5230 h1        1 MOL      0.105732
     75 H32         6.9570    2.9680    2.7950 h1        1 MOL      0.105732
     76 N7          4.5310    3.7200    0.9440 n         1 MOL     -0.111948
     77 C25         3.1910    4.3630    0.8880 c3        1 MOL     -0.001042
     78 C26         2.1130    3.3120    1.0320 c         1 MOL      0.547941
     79 O14         2.3830    2.1530    0.5520 o         1 MOL     -0.675229
     80 C27         2.9050    5.3710   -0.2560 c3        1 MOL      0.122551
     81 C28         3.9350    6.5620   -0.2200 c3        1 MOL     -0.259323
     82 C29         3.6870    7.6510   -1.1820 c         1 MOL      0.702885
     83 N8          4.4260    7.7450   -2.2500 n         1 MOL     -0.792588
     84 O15         2.8330    8.4670   -1.0340 o         1 MOL     -0.598202
     85 H33         4.6190    2.8490    0.4380 hn        1 MOL      0.112640
     86 H34         3.1020    4.9720    1.7880 h1        1 MOL      0.035249
     87 H35         1.9200    5.7750   -0.0300 hc        1 MOL      0.004401
     88 H36         2.8440    4.9600   -1.2620 hc        1 MOL      0.004401
     89 H37         4.9010    6.0880   -0.4020 hc        1 MOL      0.075998
     90 H38         3.8770    7.1350    0.7050 hc        1 MOL      0.075998
     91 H39         5.1750    7.1080   -2.4790 hn        1 MOL      0.347120
     92 H40         4.3770    8.5550   -2.8350 hn        1 MOL      0.347120
     93 N9          0.9730    3.6310    1.5510 n         1 MOL     -0.463175
     94 C30        -0.2320    2.7080    1.7140 c3        1 MOL      0.003620
     95 C31        -1.3970    3.0500    0.7770 c         1 MOL      0.539579
     96 O16        -2.0130    4.1120    0.9020 o         1 MOL     -0.605335
     97 C32        -0.6910    2.7640    3.2500 c3        1 MOL      0.199196
     98 C33        -2.0440    2.1350    3.4700 c3        1 MOL     -0.229118
     99 C34         0.3620    2.0290    4.0720 c3        1 MOL     -0.229118
    100 H41         0.9480    4.5560    1.9390 hn        1 MOL      0.291766
    101 H42         0.1070    1.7250    1.3850 h1        1 MOL      0.172598
    102 H43        -0.7440    3.8040    3.5410 hc        1 MOL     -0.004770
    103 H44        -2.8350    2.6150    2.9000 hc        1 MOL      0.050275
    104 H45        -1.9650    1.0740    3.2260 hc        1 MOL      0.050275
    105 H46        -2.2690    2.3310    4.5170 hc        1 MOL      0.050275
    106 H47         0.1870    0.9610    4.0330 hc        1 MOL      0.050275
    107 H48         1.4020    2.2540    3.8260 hc        1 MOL      0.050275
    108 H49         0.2950    2.4360    5.0740 hc        1 MOL      0.050275
    109 N10        -1.7270    2.2560   -0.2580 n         1 MOL     -0.373226
    110 C35        -2.9880    2.3810   -1.0780 c3        1 MOL      0.100213
    111 C36        -4.2210    1.8830   -0.2850 c         1 MOL      0.393081
    112 O17        -4.0770    0.9730    0.5970 o         1 MOL     -0.346472
    113 C37        -2.7700    1.5980   -2.3170 c3        1 MOL     -0.299810
    114 C38        -3.8260    1.8450   -3.4160 c         1 MOL      0.675373
    115 N11        -3.8270    3.0280   -4.0650 n         1 MOL     -0.800791
    116 O18        -4.6750    1.0080   -3.6010 o         1 MOL     -0.519481
    117 H50        -1.2540    1.3580   -0.3400 hn        1 MOL      0.226841
    118 H51        -3.1530    3.4210   -1.3520 h1        1 MOL      0.048066
    119 H52        -2.7500    0.5340   -2.0810 hc        1 MOL      0.125140
    120 H53        -1.8380    1.8410   -2.8060 hc        1 MOL      0.125140
    121 H54        -3.2930    3.8090   -3.7260 hn        1 MOL      0.363520
    122 H55        -4.4940    3.0980   -4.8190 hn        1 MOL      0.363520
    123 N12        -5.3740    2.3000   -0.7790 n         1 MOL     -0.431844
    124 C39        -6.6300    1.7390   -0.3700 c3        1 MOL      0.114584
    125 C40        -6.7580    0.2120   -0.3330 c         1 MOL      0.608090
    126 O19        -7.2870   -0.2260    0.7450 o         1 MOL     -0.574141
    127 C41        -7.6610    2.4770   -1.2600 c3        1 MOL     -0.017909
    128 C42        -9.0080    2.4310   -0.6000 ca        1 MOL      0.042273
    129 C43        -9.3300    3.4430    0.3480 ca        1 MOL     -0.261701
    130 C44        -9.9420    1.3700   -0.8180 ca        1 MOL     -0.261701
    131 C45       -10.4740    3.3230    1.1450 ca        1 MOL     -0.118684
    132 C46       -11.0320    1.2240    0.0030 ca        1 MOL     -0.118684
    133 C47       -11.3680    2.2290    0.9690 ca        1 MOL      0.246443
    134 O20       -12.5310    2.1210    1.6840 oh        1 MOL     -0.546004
    135 H56        -5.3400    2.8740   -1.6020 hn        1 MOL      0.223659
    136 H57        -6.7600    2.1920    0.6100 h1        1 MOL      0.075891
    137 H58        -7.6620    2.0590   -2.2720 hc        1 MOL      0.029164
    138 H59        -7.4230    3.5280   -1.3960 hc        1 MOL      0.029164
    139 H60        -8.5560    4.1740    0.5080 ha        1 MOL      0.161583
    140 H61        -9.7130    0.5520   -1.4930 ha        1 MOL      0.161583
    141 H62       -10.5770    4.1010    1.8890 ha        1 MOL      0.107231
    142 H63       -11.7970    0.4720   -0.1590 ha        1 MOL      0.107231
    143 H64       -12.9860    1.2860    1.6320 ho        1 MOL      0.401767
    144 N13        -6.2300   -0.5740   -1.3070 n         1 MOL     -0.559007
    145 C48        -6.3490   -2.0400   -1.3180 c3        1 MOL      0.127065
    146 C49        -5.4320   -2.7440   -0.2880 c         1 MOL      0.215648
    147 O21        -5.6230   -3.9650    0.0230 o         1 MOL     -0.499757
    148 C50        -6.1210   -2.5310   -2.8020 c3        1 MOL     -0.127401
    149 C51        -4.6830   -2.7650   -3.2350 c3        1 MOL     -0.008766
    150 C52        -4.5230   -3.3470   -4.6030 c         1 MOL      0.657024
    151 O22        -3.8650   -2.6170   -5.3770 o         1 MOL     -0.734225
    152 O23        -4.9540   -4.5160   -4.8030 o         1 MOL     -0.734225
    153 H65        -5.7290   -0.0990   -2.0400 hn        1 MOL      0.306288
    154 H66        -7.3920   -2.2810   -1.0790 h1        1 MOL      0.084015
    155 H67        -6.6320   -1.8450   -3.4890 hc        1 MOL      0.030298
    156 H68        -6.6980   -3.4490   -2.8710 hc        1 MOL      0.030298
    157 H69        -4.1870   -3.4940   -2.6020 hc        1 MOL      0.013194
    158 H70        -4.0810   -1.8700   -3.0730 hc        1 MOL      0.013194
    159 N14        -4.4890   -1.9890    0.2260 n         1 MOL     -0.110086
    160 C53        -3.6030   -2.4760    1.2460 c3        1 MOL     -0.027348
    161 C54        -4.2420   -2.1500    2.6450 c         1 MOL      0.426781
    162 O24        -3.9580   -2.8340    3.5900 o         1 MOL     -0.515083
    163 C55        -2.2250   -1.8720    1.1650 c3        1 MOL      0.228958
    164 C56        -1.3870   -2.0600   -0.1300 c3        1 MOL     -0.011793
    165 C57        -0.1390   -1.1830   -0.1710 c         1 MOL      0.661913
    166 O25         0.9940   -1.6470   -0.2570 o         1 MOL     -0.703942
    167 O26        -0.3190    0.0170   -0.2600 o         1 MOL     -0.703942
    168 H71        -4.3990   -1.1170   -0.2810 hn        1 MOL      0.204593
    169 H72        -3.3890   -3.5410    1.2070 h1        1 MOL      0.068548
    170 H73        -1.6060   -2.3190    1.9490 hc        1 MOL     -0.031328
    171 H74        -2.2150   -0.7980    1.3520 hc        1 MOL     -0.031328
    172 H75        -2.0800   -2.0030   -0.9700 hc        1 MOL     -0.022213
    173 H76        -1.0690   -3.0970   -0.1020 hc        1 MOL     -0.022213
    174 N15        -4.9680   -1.0050    2.7550 n         1 MOL     -0.147422
    175 C58        -5.4590   -0.3740    3.9950 c3        1 MOL     -0.184040
    176 H77        -4.6110   -0.0140    4.5780 h1        1 MOL      0.074838
    177 H78        -6.1090    0.4650    3.7450 h1        1 MOL      0.074838
    178 H79        -6.0160   -1.1050    4.5800 h1        1 MOL      0.074838
    179 H80        -4.9820   -0.3140    2.0140 hn        1 MOL      0.104171
    180 Ca1         2.4250    0.1140   -1.2460 Ca        1 MOL      1.786399
    181 O27         0.6480   -0.2730   -3.5300 oh        1 MOL     -0.850058
    182 H81         1.0440   -1.0290   -3.9590 ho        1 MOL      0.405802
    183 H82        -0.2310   -0.2100   -3.9190 ho        1 MOL      0.405802
    184 O28         2.2240    2.5790   -2.4170 oh        1 MOL     -0.850058
    185 H83         2.3650    2.7120   -3.3550 ho        1 MOL      0.405802
    186 H84         3.0570    2.7990   -2.0080 ho        1 MOL      0.405802
@<TRIPOS>BOND
     1    1    2 1   
     2    1    4 1   
     3    1    5 1   
     4    1    6 1   
     5    2    3 2   
     6    2    7 1   
     7    7    8 1   
     8    7   15 1   
     9    8    9 1   
    10    8   11 1   
    11    8   16 1   
    12    9   10 2   
    13    9   19 1   
    14   11   12 1   
    15   11   17 1   
    16   11   18 1   
    17   12   13 1   
    18   12   14 1   
    19   19   20 1   
    20   19   27 1   
    21   20   21 1   
    22   20   23 1   
    23   20   28 1   
    24   21   22 2   
    25   21   38 1   
    26   23   24 1   
    27   23   25 1   
    28   23   29 1   
    29   24   26 1   
    30   24   30 1   
    31   24   31 1   
    32   25   32 1   
    33   25   33 1   
    34   25   34 1   
    35   26   35 1   
    36   26   36 1   
    37   26   37 1   
    38   38   39 1   
    39   38   46 1   
    40   39   40 1   
    41   39   42 1   
    42   39   47 1   
    43   40   41 2   
    44   40   50 1   
    45   42   43 1   
    46   42   48 1   
    47   42   49 1   
    48   43   44 1   
    49   43   45 1   
    50   50   51 1   
    51   50   54 1   
    52   51   52 1   
    53   51   55 1   
    54   51   56 1   
    55   52   53 2   
    56   52   57 1   
    57   57   58 1   
    58   57   65 1   
    59   58   59 1   
    60   58   61 1   
    61   58   66 1   
    62   59   60 2   
    63   59   69 1   
    64   61   62 1   
    65   61   67 1   
    66   61   68 1   
    67   62   63 1   
    68   62   64 1   
    69   69   70 1   
    70   69   73 1   
    71   70   71 1   
    72   70   74 1   
    73   70   75 1   
    74   71   72 2   
    75   71   76 1   
    76   76   77 1   
    77   76   85 1   
    78   77   78 1   
    79   77   80 1   
    80   77   86 1   
    81   78   79 2   
    82   78   93 1   
    83   80   81 1   
    84   80   87 1   
    85   80   88 1   
    86   81   82 1   
    87   81   89 1   
    88   81   90 1   
    89   82   83 1   
    90   82   84 2   
    91   83   91 1   
    92   83   92 1   
    93   93   94 1   
    94   93  100 1   
    95   94   95 1   
    96   94   97 1   
    97   94  101 1   
    98   95   96 2   
    99   95  109 1   
   100   97   98 1   
   101   97   99 1   
   102   97  102 1   
   103   98  103 1   
   104   98  104 1   
   105   98  105 1   
   106   99  106 1   
   107   99  107 1   
   108   99  108 1   
   109  109  110 1   
   110  109  117 1   
   111  110  111 1   
   112  110  113 1   
   113  110  118 1   
   114  111  112 2   
   115  111  123 1   
   116  113  114 1   
   117  113  119 1   
   118  113  120 1   
   119  114  115 1   
   120  114  116 2   
   121  115  121 1   
   122  115  122 1   
   123  123  124 1   
   124  123  135 1   
   125  124  125 1   
   126  124  127 1   
   127  124  136 1   
   128  125  126 2   
   129  125  144 1   
   130  127  128 1   
   131  127  137 1   
   132  127  138 1   
   133  128  129 ar  
   134  128  130 ar  
   135  129  131 ar  
   136  129  139 1   
   137  130  132 ar  
   138  130  140 1   
   139  131  133 ar  
   140  131  141 1   
   141  132  133 ar  
   142  132  142 1   
   143  133  134 1   
   144  134  143 1   
   145  144  145 1   
   146  144  153 1   
   147  145  146 1   
   148  145  148 1   
   149  145  154 1   
   150  146  147 2   
   151  146  159 1   
   152  148  149 1   
   153  148  155 1   
   154  148  156 1   
   155  149  150 1   
   156  149  157 1   
   157  149  158 1   
   158  150  151 1   
   159  150  152 1   
   160  159  160 1   
   161  159  168 1   
   162  160  161 1   
   163  160  163 1   
   164  160  169 1   
   165  161  162 2   
   166  161  174 1   
   167  163  164 1   
   168  163  170 1   
   169  163  171 1   
   170  164  165 1   
   171  164  172 1   
   172  164  173 1   
   173  165  166 1   
   174  165  167 1   
   175  174  175 1   
   176  174  179 1   
   177  175  176 1   
   178  175  177 1   
   179  175  178 1   
   180  181  182 1   
   181  181  183 1   
   182  184  185 1   
   183  184  186 1   
@<TRIPOS>SUBSTRUCTURE
     1 MOL         1 TEMP              0 ****  ****    0 ROOT
