@<TRIPOS>MOLECULE
MOL
  189   185     1     0     0
SMALL
resp


@<TRIPOS>ATOM
      1 C1         -0.6670    0.9980    6.7960 c3        1 MOL     -0.423117
      2 C2         -0.8620    1.0080    5.2170 c         1 MOL      0.761100
      3 O1          0.0440    1.2840    4.5000 o         1 MOL     -0.588789
      4 H1          0.2180    1.5780    7.0570 hc        1 MOL      0.105862
      5 H2         -1.5430    1.4370    7.2740 hc        1 MOL      0.105862
      6 H3         -0.5410   -0.0300    7.1400 hc        1 MOL      0.105862
      7 N1         -2.1040    0.9450    4.7000 n         1 MOL     -0.592640
      8 C3         -2.4350    1.1150    3.3080 c3        1 MOL      0.026341
      9 C4         -2.5970    2.5760    2.9190 c         1 MOL      0.632797
     10 O2         -3.2510    3.3140    3.6530 o         1 MOL     -0.592150
     11 C5         -3.7120    0.3610    3.0060 c3        1 MOL     -0.039283
     12 C6         -4.1990    0.3210    1.5770 c         1 MOL      0.755039
     13 O3         -3.3600    0.3530    0.6090 o         1 MOL     -0.749884
     14 O4         -5.4310    0.1870    1.4010 o         1 MOL     -0.749884
     15 H4         -2.7370    0.5630    5.3860 hn        1 MOL      0.300386
     16 H5         -1.6320    0.6700    2.7030 h1        1 MOL      0.061259
     17 H6         -4.4290    0.8030    3.6920 hc        1 MOL      0.020260
     18 H7         -3.5340   -0.6450    3.3910 hc        1 MOL      0.020260
     19 N2         -2.0060    3.0880    1.8150 n         1 MOL     -0.301905
     20 C7         -2.0330    4.4950    1.5460 c3        1 MOL      0.010117
     21 C8         -3.0510    4.8090    0.4410 c         1 MOL      0.526245
     22 O5         -3.6010    5.9350    0.5170 o         1 MOL     -0.615405
     23 C9         -0.5360    4.8880    1.1980 c3        1 MOL     -0.138526
     24 C10        -0.5080    6.2940    0.7550 c3        1 MOL     -0.027973
     25 C11         0.9310    6.7950    0.4840 c3        1 MOL      0.113402
     26 C12         0.9620    8.2370   -0.1380 c3        1 MOL     -0.083943
     27 N3          0.8010    9.3050    0.8850 n4        1 MOL     -0.381652
     28 H8         -1.4650    2.4640    1.2290 hn        1 MOL      0.115631
     29 H9         -2.3830    5.1430    2.3450 h1        1 MOL      0.080019
     30 H10        -0.0950    4.2070    0.4740 hc        1 MOL      0.085869
     31 H11         0.0500    4.7690    2.1130 hc        1 MOL      0.085869
     32 H12        -1.0050    6.9680    1.4580 hc        1 MOL      0.026801
     33 H13        -1.0380    6.3510   -0.2020 hc        1 MOL      0.026801
     34 H14         1.4560    6.0480   -0.1110 hc        1 MOL     -0.003059
     35 H15         1.5090    6.8490    1.4060 hc        1 MOL     -0.003059
     36 H16         0.2810    8.2570   -0.9890 hx        1 MOL      0.107762
     37 H17         1.9920    8.3630   -0.4800 hx        1 MOL      0.107762
     38 H18         1.5530    9.3350    1.5580 hn        1 MOL      0.338274
     39 H19         0.7520   10.1550    0.3420 hn        1 MOL      0.338274
     40 H20        -0.0820    9.2320    1.3850 hn        1 MOL      0.338274
     41 N4         -3.3400    3.8970   -0.4630 n         1 MOL     -0.222981
     42 C13        -4.2020    4.1750   -1.6120 c3        1 MOL      0.078104
     43 C14        -5.5450    3.3410   -1.5980 c         1 MOL      0.343547
     44 O6         -6.3420    3.4070   -2.5610 o         1 MOL     -0.480927
     45 C15        -3.5060    4.0150   -2.9980 c3        1 MOL     -0.288221
     46 C16        -2.6640    2.7870   -3.2980 c         1 MOL      0.906302
     47 O7         -1.8360    2.6790   -4.2500 o         1 MOL     -0.727211
     48 O8         -2.5650    1.8450   -2.5060 o         1 MOL     -0.727211
     49 H21        -2.6300    3.2050   -0.6330 hn        1 MOL      0.161405
     50 H22        -4.5360    5.2160   -1.6020 h1        1 MOL      0.080721
     51 H23        -2.7930    4.8390   -2.9820 hc        1 MOL      0.061875
     52 H24        -4.2220    4.0800   -3.8000 hc        1 MOL      0.061875
     53 N5         -5.7620    2.6200   -0.5200 n         1 MOL     -0.140495
     54 C17        -7.1300    2.1950   -0.1820 c3        1 MOL     -0.190210
     55 C18        -7.5430    0.9340   -1.0570 c         1 MOL      0.445178
     56 O9         -8.6970    0.8930   -1.4650 o         1 MOL     -0.544286
     57 H25        -5.0090    2.6500    0.1540 hn        1 MOL      0.174380
     58 H26        -7.8630    2.9560   -0.4380 h1        1 MOL      0.113004
     59 H27        -7.2380    1.8290    0.8420 h1        1 MOL      0.113004
     60 N6         -6.5690    0.0780   -1.4380 n         1 MOL     -0.101687
     61 C19        -6.9400   -1.2160   -2.1450 c3        1 MOL     -0.057509
     62 C20        -6.8580   -2.4190   -1.1880 c         1 MOL      0.397015
     63 O10        -7.2170   -3.5170   -1.5980 o         1 MOL     -0.526570
     64 C21        -5.8770   -1.5080   -3.3010 c3        1 MOL     -0.158211
     65 C22        -4.4180   -1.3860   -2.9720 c         1 MOL      0.677488
     66 O11        -3.9360   -1.9750   -1.9670 o         1 MOL     -0.695593
     67 O12        -3.7700   -0.4470   -3.4590 o         1 MOL     -0.695593
     68 H28        -5.6250    0.2250   -1.1090 hn        1 MOL      0.087016
     69 H29        -7.9380   -1.2480   -2.5720 h1        1 MOL      0.128055
     70 H30        -6.0990   -0.8580   -4.1540 hc        1 MOL      0.047520
     71 H31        -6.0290   -2.5460   -3.6020 hc        1 MOL      0.047520
     72 N7         -6.5490   -2.1660    0.0520 n         1 MOL     -0.230490
     73 C23        -6.5570   -3.1320    1.0820 c3        1 MOL     -0.304525
     74 C24        -5.2920   -3.9570    1.1210 c         1 MOL      0.598122
     75 O13        -5.3010   -4.9340    1.8630 o         1 MOL     -0.590362
     76 H32        -6.3060   -1.2340    0.3550 hn        1 MOL      0.316851
     77 H33        -7.4030   -3.7680    0.8170 h1        1 MOL      0.135482
     78 H34        -6.6270   -2.7000    2.0730 h1        1 MOL      0.135482
     79 N8         -4.3080   -3.6290    0.3000 n         1 MOL     -0.185037
     80 C25        -3.0820   -4.5070    0.2030 c3        1 MOL     -0.417156
     81 C26        -1.8190   -3.6510    0.1680 c         1 MOL      0.804043
     82 O14        -1.8770   -2.4820   -0.1290 o         1 MOL     -0.747968
     83 C27        -3.1790   -5.4410   -1.0270 c3        1 MOL      0.446721
     84 C28        -4.2800   -6.4840   -0.8920 c3        1 MOL     -0.427869
     85 O15        -3.3200   -4.7190   -2.2640 oh        1 MOL     -0.632154
     86 H35        -4.3030   -2.7610   -0.2130 hn        1 MOL      0.217548
     87 H36        -2.9220   -5.1170    1.0890 h1        1 MOL      0.166467
     88 H37        -2.3260   -6.1130   -1.0560 h1        1 MOL     -0.008607
     89 H38        -3.7240   -3.8900   -2.0050 ho        1 MOL      0.424915
     90 H39        -5.2240   -5.9370   -0.9080 hc        1 MOL      0.113998
     91 H40        -4.1400   -7.0890   -1.7840 hc        1 MOL      0.113998
     92 H41        -4.1510   -7.0960   -0.0020 hc        1 MOL      0.113998
     93 N9         -0.7010   -4.2180    0.6570 n         1 MOL     -0.648091
     94 C29         0.4240   -3.3820    1.1110 c3        1 MOL      0.119788
     95 C30         1.5740   -3.6950    0.1930 c         1 MOL      0.485961
     96 O16         2.1270   -4.8090    0.1980 o         1 MOL     -0.561436
     97 C31         0.8750   -3.6460    2.5620 c3        1 MOL      0.255756
     98 C32        -0.3440   -3.8420    3.5720 c3        1 MOL      0.087711
     99 C33         1.7510   -2.5370    2.9990 c3        1 MOL     -0.520882
    100 C34        -1.2410   -2.6380    3.8010 c3        1 MOL     -0.186137
    101 H42        -0.6970   -5.1860    0.9690 hn        1 MOL      0.327238
    102 H43         0.2240   -2.3140    1.1060 h1        1 MOL      0.072723
    103 H44         1.4120   -4.5880    2.7160 hc        1 MOL     -0.056103
    104 H45         0.1090   -4.1370    4.5220 hc        1 MOL     -0.025688
    105 H46        -0.9220   -4.6650    3.1420 hc        1 MOL     -0.025688
    106 H47         1.9850   -2.7750    4.0390 hc        1 MOL      0.117958
    107 H48         2.6850   -2.5410    2.4380 hc        1 MOL      0.117958
    108 H49         1.3020   -1.5510    2.8990 hc        1 MOL      0.117958
    109 H50        -1.3990   -2.1270    2.8560 hc        1 MOL      0.051027
    110 H51        -2.1540   -2.9440    4.3150 hc        1 MOL      0.051027
    111 H52        -0.6340   -1.9180    4.3440 hc        1 MOL      0.051027
    112 N10         1.9920   -2.7310   -0.6360 n         1 MOL     -0.240306
    113 C35         3.2910   -2.7880   -1.4000 c3        1 MOL     -0.086919
    114 C36         4.5670   -2.3920   -0.5580 c         1 MOL      0.291522
    115 O17         4.4450   -1.8380    0.5300 o         1 MOL     -0.191589
    116 C37         3.3930   -1.7630   -2.6240 c3        1 MOL      0.218705
    117 C38         2.4120   -2.0260   -3.6780 c3        1 MOL     -0.280254
    118 O18         3.1190   -0.4860   -2.0640 oh        1 MOL     -0.560311
    119 H53         1.5810   -1.8380   -0.4170 hn        1 MOL      0.188746
    120 H54         3.3300   -3.7950   -1.7980 h1        1 MOL      0.106768
    121 H55         4.4390   -1.8820   -2.9200 h1        1 MOL      0.018018
    122 H56         2.2090   -0.6350   -1.7980 ho        1 MOL      0.411188
    123 H57         2.5470   -1.4840   -4.6160 hc        1 MOL      0.079337
    124 H58         2.5770   -3.0270   -4.0900 hc        1 MOL      0.079337
    125 H59         1.4260   -1.8630   -3.2410 hc        1 MOL      0.079337
    126 N11         5.7790   -2.8470   -0.9500 n         1 MOL     -0.327980
    127 C39         7.0430   -2.7550   -0.2470 c3        1 MOL     -0.012261
    128 C40         7.3520   -1.3010    0.1270 c         1 MOL      0.185356
    129 O19         8.0170   -1.0510    1.1760 o         1 MOL     -0.479760
    130 C41         8.2050   -3.3110   -1.1000 c3        1 MOL      0.381116
    131 C42         9.4230   -3.6040   -0.2340 c3        1 MOL     -0.495172
    132 O20         7.7940   -4.4280   -1.7560 oh        1 MOL     -0.632158
    133 H60         5.8210   -3.2500   -1.8690 hn        1 MOL      0.265468
    134 H61         6.8820   -3.2680    0.7020 h1        1 MOL      0.131081
    135 H62         8.4590   -2.4870   -1.7600 h1        1 MOL     -0.023771
    136 H63         8.5210   -5.0460   -1.6950 ho        1 MOL      0.427519
    137 H64         9.3780   -4.5000    0.3880 hc        1 MOL      0.137745
    138 H65        10.1980   -3.8260   -0.9660 hc        1 MOL      0.137745
    139 H66         9.7200   -2.7390    0.3480 hc        1 MOL      0.137745
    140 N12         6.8730   -0.3020   -0.6410 n         1 MOL     -0.075428
    141 C43         7.0070    1.1570   -0.2130 c3        1 MOL     -0.006663
    142 C44         5.9300    1.5990    0.7870 c         1 MOL      0.521847
    143 O21         6.0320    2.7720    1.2140 o         1 MOL     -0.561826
    144 C45         7.0020    2.0170   -1.4800 c3        1 MOL     -0.235634
    145 C46         8.3810    2.1630   -2.1400 c3        1 MOL      0.280911
    146 C47         8.3300    3.0070   -3.4250 c3        1 MOL     -0.311970
    147 C48         9.6120    2.6920   -4.2840 c3        1 MOL      0.144093
    148 N13        10.9230    3.0200   -3.5800 n4        1 MOL     -0.352402
    149 H67         6.5620   -0.5310   -1.5760 hn        1 MOL      0.200554
    150 H68         7.9930    1.2440    0.2460 h1        1 MOL      0.069902
    151 H69         6.7730    3.0390   -1.1660 hc        1 MOL      0.085210
    152 H70         6.2570    1.6310   -2.1680 hc        1 MOL      0.085210
    153 H71         8.7940    1.1750   -2.3160 hc        1 MOL     -0.047303
    154 H72         9.0450    2.7670   -1.5180 hc        1 MOL     -0.047303
    155 H73         8.4060    4.0530   -3.1620 hc        1 MOL      0.117373
    156 H74         7.4160    2.8000   -3.9760 hc        1 MOL      0.117373
    157 H75         9.6210    3.2020   -5.2450 hx        1 MOL      0.056762
    158 H76         9.7000    1.6490   -4.6050 hx        1 MOL      0.056762
    159 H77        11.1600    2.3280   -2.8830 hn        1 MOL      0.289621
    160 H78        11.6540    3.0540   -4.2730 hn        1 MOL      0.289621
    161 H79        10.8660    3.9390   -3.1540 hn        1 MOL      0.289621
    162 N14         4.9920    0.7150    1.1010 n         1 MOL     -0.243890
    163 C49         4.0330    0.8900    2.1610 c3        1 MOL     -0.085170
    164 C50         4.3840    0.1190    3.4500 c         1 MOL      0.480063
    165 O22         4.2110    0.6690    4.5370 o         1 MOL     -0.523163
    166 C51         2.6090    0.5370    1.6220 c3        1 MOL      0.165569
    167 C52         2.0550    1.4120    0.5240 c3        1 MOL     -0.079326
    168 C53         0.7650    0.9500   -0.0650 c         1 MOL      0.707564
    169 O23         0.6180   -0.1460   -0.5640 o         1 MOL     -0.699914
    170 O24        -0.2900    1.6720   -0.0760 o         1 MOL     -0.699914
    171 H80         5.0320   -0.1570    0.5830 hn        1 MOL      0.048903
    172 H81         3.9610    1.9490    2.4420 h1        1 MOL      0.082057
    173 H82         1.9920    0.4620    2.5300 hc        1 MOL     -0.001423
    174 H83         2.7400   -0.4940    1.2880 hc        1 MOL     -0.001423
    175 H84         2.7840    1.4810   -0.2770 hc        1 MOL     -0.001044
    176 H85         1.8700    2.3700    1.0100 hc        1 MOL     -0.001044
    177 N15         5.0210   -1.0700    3.3790 n         1 MOL     -0.180063
    178 C54         5.4200   -1.8730    4.4970 c3        1 MOL     -0.276353
    179 H86         6.3180   -1.4480    4.9460 h1        1 MOL      0.108825
    180 H87         4.6190   -1.8920    5.2350 h1        1 MOL      0.108825
    181 H88         5.6300   -2.8880    4.1590 h1        1 MOL      0.108825
    182 H89         5.1040   -1.5280    2.4870 hn        1 MOL      0.206438
    183 Ca1        -1.9480   -0.3220   -1.4770 Ca        1 MOL      1.821961
    184 O25        -0.2400    0.4900   -3.7910 oh        1 MOL     -0.862123
    185 H90         0.2400    0.5460   -4.6230 ho        1 MOL      0.404408
    186 H91        -1.0070    1.0430   -3.9250 ho        1 MOL      0.404408
    187 O26        -1.2050   -2.3470   -3.1690 oh        1 MOL     -0.862123
    188 H92        -1.7510   -3.1090   -3.3330 ho        1 MOL      0.404408
    189 H93        -0.6080   -2.3090   -3.9110 ho        1 MOL      0.404408
@<TRIPOS>BOND
     1    1    2 1   
     2    1    4 1   
     3    1    5 1   
     4    1    6 1   
     5    2    3 2   
     6    2    7 1   
     7    7    8 1   
     8    7   15 1   
     9    8    9 1   
    10    8   11 1   
    11    8   16 1   
    12    9   10 2   
    13    9   19 1   
    14   11   12 1   
    15   11   17 1   
    16   11   18 1   
    17   12   13 1   
    18   12   14 1   
    19   19   20 1   
    20   19   28 1   
    21   20   21 1   
    22   20   23 1   
    23   20   29 1   
    24   21   22 2   
    25   21   41 1   
    26   23   24 1   
    27   23   30 1   
    28   23   31 1   
    29   24   25 1   
    30   24   32 1   
    31   24   33 1   
    32   25   26 1   
    33   25   34 1   
    34   25   35 1   
    35   26   27 1   
    36   26   36 1   
    37   26   37 1   
    38   27   38 1   
    39   27   39 1   
    40   27   40 1   
    41   41   42 1   
    42   41   49 1   
    43   42   43 1   
    44   42   45 1   
    45   42   50 1   
    46   43   44 2   
    47   43   53 1   
    48   45   46 1   
    49   45   51 1   
    50   45   52 1   
    51   46   47 1   
    52   46   48 1   
    53   53   54 1   
    54   53   57 1   
    55   54   55 1   
    56   54   58 1   
    57   54   59 1   
    58   55   56 2   
    59   55   60 1   
    60   60   61 1   
    61   60   68 1   
    62   61   62 1   
    63   61   64 1   
    64   61   69 1   
    65   62   63 2   
    66   62   72 1   
    67   64   65 1   
    68   64   70 1   
    69   64   71 1   
    70   65   66 1   
    71   65   67 1   
    72   72   73 1   
    73   72   76 1   
    74   73   74 1   
    75   73   77 1   
    76   73   78 1   
    77   74   75 2   
    78   74   79 1   
    79   79   80 1   
    80   79   86 1   
    81   80   81 1   
    82   80   83 1   
    83   80   87 1   
    84   81   82 2   
    85   81   93 1   
    86   83   84 1   
    87   83   85 1   
    88   83   88 1   
    89   84   90 1   
    90   84   91 1   
    91   84   92 1   
    92   85   89 1   
    93   93   94 1   
    94   93  101 1   
    95   94   95 1   
    96   94   97 1   
    97   94  102 1   
    98   95   96 2   
    99   95  112 1   
   100   97   98 1   
   101   97   99 1   
   102   97  103 1   
   103   98  100 1   
   104   98  104 1   
   105   98  105 1   
   106   99  106 1   
   107   99  107 1   
   108   99  108 1   
   109  100  109 1   
   110  100  110 1   
   111  100  111 1   
   112  112  113 1   
   113  112  119 1   
   114  113  114 1   
   115  113  116 1   
   116  113  120 1   
   117  114  115 2   
   118  114  126 1   
   119  116  117 1   
   120  116  118 1   
   121  116  121 1   
   122  117  123 1   
   123  117  124 1   
   124  117  125 1   
   125  118  122 1   
   126  126  127 1   
   127  126  133 1   
   128  127  128 1   
   129  127  130 1   
   130  127  134 1   
   131  128  129 2   
   132  128  140 1   
   133  130  131 1   
   134  130  132 1   
   135  130  135 1   
   136  131  137 1   
   137  131  138 1   
   138  131  139 1   
   139  132  136 1   
   140  140  141 1   
   141  140  149 1   
   142  141  142 1   
   143  141  144 1   
   144  141  150 1   
   145  142  143 2   
   146  142  162 1   
   147  144  145 1   
   148  144  151 1   
   149  144  152 1   
   150  145  146 1   
   151  145  153 1   
   152  145  154 1   
   153  146  147 1   
   154  146  155 1   
   155  146  156 1   
   156  147  148 1   
   157  147  157 1   
   158  147  158 1   
   159  148  159 1   
   160  148  160 1   
   161  148  161 1   
   162  162  163 1   
   163  162  171 1   
   164  163  164 1   
   165  163  166 1   
   166  163  172 1   
   167  164  165 2   
   168  164  177 1   
   169  166  167 1   
   170  166  173 1   
   171  166  174 1   
   172  167  168 1   
   173  167  175 1   
   174  167  176 1   
   175  168  169 1   
   176  168  170 1   
   177  177  178 1   
   178  177  182 1   
   179  178  179 1   
   180  178  180 1   
   181  178  181 1   
   182  184  185 1   
   183  184  186 1   
   184  187  188 1   
   185  187  189 1   
@<TRIPOS>SUBSTRUCTURE
     1 MOL         1 TEMP              0 ****  ****    0 ROOT
