@<TRIPOS>MOLECULE
MOL
  189   185     1     0     0
SMALL
resp


@<TRIPOS>ATOM
      1 C1         -0.2570    3.7010    6.0950 c3        1 MOL     -0.391983
      2 C2         -0.6480    3.1130    4.6860 c         1 MOL      0.711281
      3 O1         -0.9900    1.9070    4.5490 o         1 MOL     -0.622275
      4 H1          0.6410    4.3100    5.9970 hc        1 MOL      0.102912
      5 H2         -1.0740    4.3170    6.4710 hc        1 MOL      0.102912
      6 H3         -0.0670    2.8840    6.7910 hc        1 MOL      0.102912
      7 N1         -0.7910    3.9690    3.7480 n         1 MOL     -0.576333
      8 C3         -1.5740    3.7640    2.5290 c3        1 MOL      0.423632
      9 C4         -1.4040    4.9040    1.5370 c         1 MOL      0.295270
     10 O2         -1.3850    6.0810    2.0140 o         1 MOL     -0.567293
     11 C5         -3.0710    3.6930    2.8060 c3        1 MOL     -0.356179
     12 C6         -3.9550    2.9560    1.7630 c         1 MOL      0.733243
     13 O3         -5.1620    2.7430    2.0260 o         1 MOL     -0.681996
     14 O4         -3.4880    2.4320    0.7220 o         1 MOL     -0.681996
     15 H4         -0.6580    4.9270    4.0490 hn        1 MOL      0.287884
     16 H5         -1.1560    2.9070    2.0100 h1        1 MOL      0.037620
     17 H6         -3.4310    4.6920    3.0300 hc        1 MOL      0.086301
     18 H7         -3.1330    3.0850    3.7120 hc        1 MOL      0.086301
     19 N2         -1.4220    4.6300    0.2260 n         1 MOL     -0.106490
     20 C7         -1.3210    5.6210   -0.8380 c3        1 MOL     -0.240541
     21 C8         -2.3500    5.3900   -2.0050 c         1 MOL      0.533446
     22 O5         -2.1920    6.0830   -3.0050 o         1 MOL     -0.566635
     23 C9          0.1120    5.7280   -1.2880 c3        1 MOL      0.346592
     24 C10         0.6930    4.3120   -1.5830 c3        1 MOL     -0.033917
     25 C11         0.9810    6.6470   -0.3980 c3        1 MOL     -0.402021
     26 C12         2.1030    4.4450   -2.2100 c3        1 MOL     -0.213656
     27 H8         -1.4250    3.6550   -0.0360 hn        1 MOL      0.190291
     28 H9         -1.4700    6.6340   -0.4730 h1        1 MOL      0.121049
     29 H10         0.0860    6.2940   -2.2230 hc        1 MOL     -0.031053
     30 H11         0.0370    3.7090   -2.2060 hc        1 MOL      0.031893
     31 H12         0.9090    3.6920   -0.7180 hc        1 MOL      0.031893
     32 H13         0.4330    7.5930   -0.4490 hc        1 MOL      0.091816
     33 H14         0.9400    6.2020    0.5930 hc        1 MOL      0.091816
     34 H15         2.0360    6.7560   -0.6470 hc        1 MOL      0.091816
     35 H16         2.0840    5.2230   -2.9780 hc        1 MOL      0.038114
     36 H17         2.8310    4.6720   -1.4310 hc        1 MOL      0.038114
     37 H18         2.4960    3.5280   -2.6390 hc        1 MOL      0.038114
     38 N3         -3.3140    4.5110   -1.8780 n         1 MOL     -0.348857
     39 C13        -4.1870    3.9870   -2.8900 c3        1 MOL     -0.005037
     40 C14        -5.5480    3.3470   -2.5250 c         1 MOL      0.364886
     41 O6         -6.4740    3.2530   -3.3950 o         1 MOL     -0.489553
     42 C15        -3.4740    2.9910   -3.8670 c3        1 MOL     -0.228939
     43 C16        -3.1080    1.6940   -3.1910 c         1 MOL      0.843024
     44 O7         -3.3870    1.4270   -1.9760 o         1 MOL     -0.723414
     45 O8         -2.3990    0.9660   -3.8560 o         1 MOL     -0.723414
     46 H19        -3.2300    3.9800   -1.0170 hn        1 MOL      0.200623
     47 H20        -4.4770    4.8160   -3.5360 h1        1 MOL      0.098743
     48 H21        -2.5160    3.4740   -4.0840 hc        1 MOL      0.069860
     49 H22        -4.0090    2.8110   -4.8100 hc        1 MOL      0.069860
     50 N4         -5.7160    2.9500   -1.2020 n         1 MOL     -0.246689
     51 C17        -6.9820    2.3500   -0.7180 c3        1 MOL     -0.110134
     52 C18        -7.3110    1.0100   -1.4030 c         1 MOL      0.407829
     53 O9         -8.4830    0.7800   -1.7950 o         1 MOL     -0.581191
     54 H23        -4.9080    2.8770   -0.6000 hn        1 MOL      0.184728
     55 H24        -7.8850    2.9580   -0.8250 h1        1 MOL      0.090547
     56 H25        -6.8390    2.1400    0.3480 h1        1 MOL      0.090547
     57 N5         -6.3640    0.0700   -1.6080 n         1 MOL      0.002190
     58 C19        -6.7230   -1.2500   -2.0820 c3        1 MOL     -0.293330
     59 C20        -7.0290   -2.3010   -1.0700 c         1 MOL      0.512563
     60 O10        -7.3750   -3.4370   -1.3420 o         1 MOL     -0.521646
     61 C21        -5.6670   -1.8530   -3.0710 c3        1 MOL     -0.102823
     62 C22        -4.2270   -2.0670   -2.5080 c         1 MOL      0.677820
     63 O11        -3.9970   -1.6860   -1.3280 o         1 MOL     -0.692312
     64 O12        -3.3730   -2.7100   -3.2220 o         1 MOL     -0.692312
     65 H26        -5.4570    0.2630   -1.2110 hn        1 MOL      0.075129
     66 H27        -7.6340   -1.1840   -2.6820 h1        1 MOL      0.182018
     67 H28        -5.4350   -1.1310   -3.8520 hc        1 MOL      0.050313
     68 H29        -6.0760   -2.7150   -3.5980 hc        1 MOL      0.050313
     69 N6         -7.0040   -1.9610    0.2180 n         1 MOL     -0.258117
     70 C23        -7.2190   -2.8420    1.3660 c3        1 MOL     -0.292202
     71 C24        -6.1540   -3.8430    1.7200 c         1 MOL      0.618350
     72 O13        -6.4680   -4.7820    2.4760 o         1 MOL     -0.610612
     73 H30        -6.5160   -1.1100    0.4740 hn        1 MOL      0.227235
     74 H31        -8.0980   -3.4590    1.1690 h1        1 MOL      0.120134
     75 H32        -7.4020   -2.2160    2.2310 h1        1 MOL      0.120134
     76 N7         -4.9300   -3.6420    1.3360 n         1 MOL     -0.301236
     77 C25        -3.7080   -4.4550    1.6910 c3        1 MOL      0.059530
     78 C26        -2.5410   -3.5030    1.7570 c         1 MOL      0.297392
     79 O14        -2.6150   -2.3880    1.2450 o         1 MOL     -0.562880
     80 C27        -3.4970   -5.5350    0.6100 c3        1 MOL     -0.333432
     81 C28        -3.2520   -4.9860   -0.7570 c3        1 MOL      0.053607
     82 C29        -3.0730   -6.0010   -1.9080 c         1 MOL      0.590291
     83 N8         -2.8570   -5.5530   -3.1520 n         1 MOL     -0.772805
     84 O15        -3.0140   -7.2020   -1.6670 o         1 MOL     -0.592529
     85 H33        -4.7880   -2.9930    0.5750 hn        1 MOL      0.253906
     86 H34        -3.7880   -4.9610    2.6520 h1        1 MOL      0.063460
     87 H35        -4.3710   -6.1700    0.7020 hc        1 MOL      0.103278
     88 H36        -2.6470   -6.2000    0.7670 hc        1 MOL      0.103278
     89 H37        -2.3770   -4.3310   -0.6900 hc        1 MOL      0.057509
     90 H38        -4.1620   -4.3950   -0.8990 hc        1 MOL      0.057509
     91 H39        -2.8680   -4.5780   -3.3840 hn        1 MOL      0.351993
     92 H40        -2.5530   -6.1980   -3.8640 hn        1 MOL      0.351993
     93 N9         -1.3830   -4.0420    2.1170 n         1 MOL     -0.184798
     94 C30        -0.1580   -3.2460    2.2920 c3        1 MOL     -0.022490
     95 C31         0.8880   -3.5980    1.2740 c         1 MOL      0.357248
     96 O16         1.4390   -4.6870    1.3020 o         1 MOL     -0.569389
     97 C32         0.5510   -3.4450    3.6990 c3        1 MOL      0.362900
     98 C33         1.7110   -2.5070    3.7850 c3        1 MOL     -0.396672
     99 C34        -0.3800   -3.2070    4.9060 c3        1 MOL     -0.396672
    100 H41        -1.3050   -4.9980    2.4270 hn        1 MOL      0.238393
    101 H42        -0.3200   -2.1660    2.1650 h1        1 MOL      0.142819
    102 H43         0.8240   -4.4920    3.7640 hc        1 MOL     -0.054639
    103 H44         2.1300   -2.5620    4.7870 hc        1 MOL      0.078164
    104 H45         2.4710   -2.8340    3.0740 hc        1 MOL      0.078164
    105 H46         1.3420   -1.4880    3.6510 hc        1 MOL      0.078164
    106 H47        -0.7390   -2.1730    4.9220 hc        1 MOL      0.078164
    107 H48        -1.1640   -3.9630    4.8470 hc        1 MOL      0.078164
    108 H49         0.1680   -3.3050    5.8460 hc        1 MOL      0.078164
    109 N10         1.2600   -2.6640    0.4520 n         1 MOL     -0.057765
    110 C35         2.4020   -2.5950   -0.4390 c3        1 MOL      0.007322
    111 C36         3.7600   -2.4920    0.2920 c         1 MOL      0.291413
    112 O17         3.8790   -1.9500    1.4060 o         1 MOL     -0.304082
    113 C37         2.3200   -1.4450   -1.4190 c3        1 MOL     -0.243237
    114 C38         3.1890   -1.5510   -2.6430 c         1 MOL      0.738727
    115 N11         3.2770   -0.4460   -3.3200 n         1 MOL     -0.849092
    116 O18         3.7080   -2.5470   -3.0490 o         1 MOL     -0.548103
    117 H50         0.7070   -1.8270    0.5460 hn        1 MOL      0.127669
    118 H51         2.3870   -3.5160   -1.0310 h1        1 MOL      0.070240
    119 H52         2.5850   -0.5120   -0.9080 hc        1 MOL      0.072871
    120 H53         1.2630   -1.4750   -1.6600 hc        1 MOL      0.072871
    121 H54         2.6900    0.3170   -3.0250 hn        1 MOL      0.394101
    122 H55         3.6310   -0.4580   -4.2690 hn        1 MOL      0.394101
    123 N12         4.8590   -2.8200   -0.3530 n         1 MOL     -0.237725
    124 C39         6.2360   -2.7370    0.2140 c3        1 MOL      0.002644
    125 C40         6.6890   -1.2900    0.6860 c         1 MOL      0.319896
    126 O19         7.3520   -1.1060    1.7590 o         1 MOL     -0.486476
    127 C41         7.2900   -3.3950   -0.7260 c3        1 MOL     -0.180749
    128 C42         7.6320   -2.6460   -1.9380 ca        1 MOL      0.084752
    129 C43         6.8840   -2.8970   -3.0740 ca        1 MOL     -0.206018
    130 C44         8.7600   -1.7940   -2.0070 ca        1 MOL     -0.206018
    131 C45         7.1540   -2.1830   -4.2320 ca        1 MOL     -0.241942
    132 C46         9.0140   -1.0520   -3.1980 ca        1 MOL     -0.241942
    133 C47         8.2020   -1.2490   -4.3020 ca        1 MOL      0.350100
    134 O20         8.3970   -0.4710   -5.3850 oh        1 MOL     -0.545978
    135 H56         4.7630   -2.9840   -1.3500 hn        1 MOL      0.159901
    136 H57         6.2140   -3.3460    1.1120 h1        1 MOL      0.077999
    137 H58         6.9780   -4.4160   -0.9470 hc        1 MOL      0.079972
    138 H59         8.2340   -3.5630   -0.2070 hc        1 MOL      0.079972
    139 H60         6.1050   -3.6500   -3.0570 ha        1 MOL      0.153754
    140 H61         9.2600   -1.4280   -1.1120 ha        1 MOL      0.153754
    141 H62         6.4950   -2.2450   -5.0940 ha        1 MOL      0.126802
    142 H63         9.6960   -0.2110   -3.2030 ha        1 MOL      0.126802
    143 H64         9.0530    0.1970   -5.1880 ho        1 MOL      0.394004
    144 N13         6.1450   -0.2380   -0.0370 n         1 MOL     -0.032854
    145 C48         6.3110    1.1200    0.3340 c3        1 MOL     -0.335907
    146 C49         5.4620    1.6250    1.5080 c         1 MOL      0.444508
    147 O21         5.7760    2.5350    2.2690 o         1 MOL     -0.514186
    148 C50         6.1500    2.0270   -0.9180 c3        1 MOL     -0.245132
    149 C51         7.3510    1.8840   -1.8440 c3        1 MOL     -0.025257
    150 C52         8.7390    2.2440   -1.2540 c         1 MOL      0.728999
    151 O22         8.8980    3.1340   -0.3950 o         1 MOL     -0.709321
    152 O23         9.7620    1.8500   -1.8630 o         1 MOL     -0.709321
    153 H65         5.9910   -0.4910   -1.0020 hn        1 MOL      0.255744
    154 H66         7.3420    1.1940    0.6950 h1        1 MOL      0.178637
    155 H67         6.0470    3.0910   -0.6880 hc        1 MOL      0.109766
    156 H68         5.1650    1.8680   -1.3500 hc        1 MOL      0.109766
    157 H69         7.1750    2.5780   -2.6740 hc        1 MOL     -0.019804
    158 H70         7.3400    0.8750   -2.2470 hc        1 MOL     -0.019804
    159 N14         4.3410    0.9940    1.7400 n         1 MOL     -0.040505
    160 C53         3.3890    1.2660    2.8340 c3        1 MOL     -0.200341
    161 C54         3.8820    0.6050    4.1360 c         1 MOL      0.423334
    162 O24         3.8590    1.2450    5.2440 o         1 MOL     -0.559978
    163 C55         1.9790    0.8010    2.4010 c3        1 MOL      0.013785
    164 C56         1.4690    1.5690    1.2100 c3        1 MOL     -0.008051
    165 C57         0.1800    1.0510    0.5740 c         1 MOL      0.742183
    166 O25        -0.6350    1.7720   -0.0350 o         1 MOL     -0.718254
    167 O26        -0.1750   -0.1410    0.7270 o         1 MOL     -0.718254
    168 H71         4.0850    0.2140    1.1530 hn        1 MOL      0.082224
    169 H72         3.3370    2.3230    3.1130 h1        1 MOL      0.120064
    170 H73         1.2020    0.8640    3.1650 hc        1 MOL      0.036022
    171 H74         1.9960   -0.2550    2.1520 hc        1 MOL      0.036022
    172 H75         2.2600    1.6000    0.4550 hc        1 MOL     -0.024512
    173 H76         1.3990    2.5750    1.6190 hc        1 MOL     -0.024512
    174 N15         4.3360   -0.6640    4.0570 n         1 MOL      0.018776
    175 C58         4.9270   -1.3960    5.1920 c3        1 MOL     -0.249864
    176 H77         5.8690   -0.9260    5.4770 h1        1 MOL      0.087640
    177 H78         4.2400   -1.3740    6.0380 h1        1 MOL      0.087640
    178 H79         5.1120   -2.4300    4.9010 h1        1 MOL      0.087640
    179 H80         4.3570   -1.0160    3.1150 hn        1 MOL      0.076305
    180 Ca1        -2.6070   -0.0090   -0.0540 Ca        1 MOL      1.780702
    181 O27        -2.2710    0.2400    2.7840 oh        1 MOL     -0.923701
    182 H81        -1.9160    0.7730    3.4920 ho        1 MOL      0.428499
    183 H82        -2.8540   -0.3820    3.2170 ho        1 MOL      0.428499
    184 O28        -5.0570    0.1760    0.9510 oh        1 MOL     -0.923701
    185 H83        -4.8500    1.1070    1.1140 ho        1 MOL      0.428499
    186 H84        -5.6930   -0.0460    1.6310 ho        1 MOL      0.428499
    187 O29        -1.2000   -0.8360   -2.1370 oh        1 MOL     -0.923701
    188 H85        -1.7750   -1.5170   -2.4910 ho        1 MOL      0.428499
    189 H86        -1.2650   -0.1170   -2.7650 ho        1 MOL      0.428499
@<TRIPOS>BOND
     1    1    2 1   
     2    1    4 1   
     3    1    5 1   
     4    1    6 1   
     5    2    3 2   
     6    2    7 1   
     7    7    8 1   
     8    7   15 1   
     9    8    9 1   
    10    8   11 1   
    11    8   16 1   
    12    9   10 2   
    13    9   19 1   
    14   11   12 1   
    15   11   17 1   
    16   11   18 1   
    17   12   13 1   
    18   12   14 1   
    19   19   20 1   
    20   19   27 1   
    21   20   21 1   
    22   20   23 1   
    23   20   28 1   
    24   21   22 2   
    25   21   38 1   
    26   23   24 1   
    27   23   25 1   
    28   23   29 1   
    29   24   26 1   
    30   24   30 1   
    31   24   31 1   
    32   25   32 1   
    33   25   33 1   
    34   25   34 1   
    35   26   35 1   
    36   26   36 1   
    37   26   37 1   
    38   38   39 1   
    39   38   46 1   
    40   39   40 1   
    41   39   42 1   
    42   39   47 1   
    43   40   41 2   
    44   40   50 1   
    45   42   43 1   
    46   42   48 1   
    47   42   49 1   
    48   43   44 1   
    49   43   45 1   
    50   50   51 1   
    51   50   54 1   
    52   51   52 1   
    53   51   55 1   
    54   51   56 1   
    55   52   53 2   
    56   52   57 1   
    57   57   58 1   
    58   57   65 1   
    59   58   59 1   
    60   58   61 1   
    61   58   66 1   
    62   59   60 2   
    63   59   69 1   
    64   61   62 1   
    65   61   67 1   
    66   61   68 1   
    67   62   63 1   
    68   62   64 1   
    69   69   70 1   
    70   69   73 1   
    71   70   71 1   
    72   70   74 1   
    73   70   75 1   
    74   71   72 2   
    75   71   76 1   
    76   76   77 1   
    77   76   85 1   
    78   77   78 1   
    79   77   80 1   
    80   77   86 1   
    81   78   79 2   
    82   78   93 1   
    83   80   81 1   
    84   80   87 1   
    85   80   88 1   
    86   81   82 1   
    87   81   89 1   
    88   81   90 1   
    89   82   83 1   
    90   82   84 2   
    91   83   91 1   
    92   83   92 1   
    93   93   94 1   
    94   93  100 1   
    95   94   95 1   
    96   94   97 1   
    97   94  101 1   
    98   95   96 2   
    99   95  109 1   
   100   97   98 1   
   101   97   99 1   
   102   97  102 1   
   103   98  103 1   
   104   98  104 1   
   105   98  105 1   
   106   99  106 1   
   107   99  107 1   
   108   99  108 1   
   109  109  110 1   
   110  109  117 1   
   111  110  111 1   
   112  110  113 1   
   113  110  118 1   
   114  111  112 2   
   115  111  123 1   
   116  113  114 1   
   117  113  119 1   
   118  113  120 1   
   119  114  115 1   
   120  114  116 2   
   121  115  121 1   
   122  115  122 1   
   123  123  124 1   
   124  123  135 1   
   125  124  125 1   
   126  124  127 1   
   127  124  136 1   
   128  125  126 2   
   129  125  144 1   
   130  127  128 1   
   131  127  137 1   
   132  127  138 1   
   133  128  129 ar  
   134  128  130 ar  
   135  129  131 ar  
   136  129  139 1   
   137  130  132 ar  
   138  130  140 1   
   139  131  133 ar  
   140  131  141 1   
   141  132  133 ar  
   142  132  142 1   
   143  133  134 1   
   144  134  143 1   
   145  144  145 1   
   146  144  153 1   
   147  145  146 1   
   148  145  148 1   
   149  145  154 1   
   150  146  147 2   
   151  146  159 1   
   152  148  149 1   
   153  148  155 1   
   154  148  156 1   
   155  149  150 1   
   156  149  157 1   
   157  149  158 1   
   158  150  151 1   
   159  150  152 1   
   160  159  160 1   
   161  159  168 1   
   162  160  161 1   
   163  160  163 1   
   164  160  169 1   
   165  161  162 2   
   166  161  174 1   
   167  163  164 1   
   168  163  170 1   
   169  163  171 1   
   170  164  165 1   
   171  164  172 1   
   172  164  173 1   
   173  165  166 1   
   174  165  167 1   
   175  174  175 1   
   176  174  179 1   
   177  175  176 1   
   178  175  177 1   
   179  175  178 1   
   180  181  182 1   
   181  181  183 1   
   182  184  185 1   
   183  184  186 1   
   184  187  188 1   
   185  187  189 1   
@<TRIPOS>SUBSTRUCTURE
     1 MOL         1 TEMP              0 ****  ****    0 ROOT
