@<TRIPOS>MOLECULE
MOL
  175   173     1     0     0
SMALL
resp


@<TRIPOS>ATOM
      1 C1          0.4890    4.0580    5.4010 c3        1 MOL     -0.375465
      2 C2         -0.1730    3.9380    3.9590 c         1 MOL      0.715955
      3 O1          0.4500    4.1240    2.9470 o         1 MOL     -0.544635
      4 H1         -0.1440    3.5570    6.1330 hc        1 MOL      0.087477
      5 H2          1.4710    3.5870    5.3900 hc        1 MOL      0.087477
      6 H3          0.5930    5.1090    5.6680 hc        1 MOL      0.087477
      7 N1         -1.4610    3.6710    3.9840 n         1 MOL     -0.682860
      8 C3         -2.1950    3.4360    2.7760 c3        1 MOL      0.397000
      9 C4         -2.3370    4.6050    1.7750 c         1 MOL      0.517464
     10 O2         -2.6870    5.6820    2.2590 o         1 MOL     -0.590298
     11 C5         -3.5630    2.7830    3.1030 c3        1 MOL     -0.359380
     12 C6         -4.3270    2.5910    1.7480 c         1 MOL      0.668347
     13 O3         -5.3700    3.2450    1.6270 o         1 MOL     -0.624335
     14 O4         -3.8330    1.8910    0.8420 o         1 MOL     -0.624335
     15 H4         -1.9700    3.5240    4.8460 hn        1 MOL      0.331263
     16 H5         -1.5980    2.7150    2.2260 h1        1 MOL      0.017055
     17 H6         -4.0940    3.4870    3.7360 hc        1 MOL      0.057863
     18 H7         -3.4470    1.8160    3.5920 hc        1 MOL      0.057863
     19 N2         -2.1320    4.3950    0.4810 n         1 MOL     -0.445928
     20 C7         -2.3960    5.3880   -0.6310 c3        1 MOL      0.375357
     21 C8         -3.5630    5.1360   -1.6210 c         1 MOL      0.316595
     22 O5         -3.8360    5.9210   -2.5400 o         1 MOL     -0.556338
     23 C9         -1.1040    5.5730   -1.3630 c3        1 MOL     -0.293454
     24 H8         -1.7630    3.5140    0.1460 hn        1 MOL      0.295992
     25 H9         -2.6310    6.3760   -0.2390 h1        1 MOL     -0.006015
     26 H10        -0.8170    4.6700   -1.9010 hc        1 MOL      0.071031
     27 H11        -1.0570    6.4250   -2.0470 hc        1 MOL      0.071031
     28 H12        -0.3060    5.7440   -0.6370 hc        1 MOL      0.071031
     29 N3         -4.1220    3.9220   -1.5460 n         1 MOL     -0.070706
     30 C10        -5.0020    3.3810   -2.5890 c3        1 MOL      0.000277
     31 C11        -6.1440    2.3980   -2.1240 c         1 MOL      0.454831
     32 O6         -6.8760    1.9650   -3.0350 o         1 MOL     -0.535793
     33 C12        -4.1240    2.7060   -3.7130 c3        1 MOL     -0.027808
     34 C13        -3.4450    1.3120   -3.3700 c         1 MOL      0.655640
     35 O7         -3.5530    0.8240   -2.2150 o         1 MOL     -0.679310
     36 O8         -2.6590    0.8010   -4.1720 o         1 MOL     -0.679310
     37 H13        -3.9990    3.3250   -0.7410 hn        1 MOL     -0.033223
     38 H14        -5.5020    4.2440   -3.0190 h1        1 MOL      0.070142
     39 H15        -3.3250    3.3880   -4.0000 hc        1 MOL      0.006451
     40 H16        -4.8010    2.6380   -4.5620 hc        1 MOL      0.006451
     41 N4         -6.2400    1.9560   -0.8380 n         1 MOL     -0.346641
     42 C14        -7.3810    1.1790   -0.4670 c3        1 MOL     -0.117165
     43 C15        -7.3390   -0.3330   -0.9700 c         1 MOL      0.493208
     44 O9         -8.3240   -1.0200   -0.7210 o         1 MOL     -0.617650
     45 H17        -5.6890    2.3730   -0.0970 hn        1 MOL      0.254839
     46 H18        -8.3390    1.5220   -0.8410 h1        1 MOL      0.099169
     47 H19        -7.4910    1.2130    0.6040 h1        1 MOL      0.099169
     48 N5         -6.2830   -0.8850   -1.5810 n         1 MOL     -0.260787
     49 C16        -6.2330   -2.2300   -2.1940 c3        1 MOL      0.204934
     50 C17        -6.1130   -3.4020   -1.1880 c         1 MOL      0.341226
     51 O10        -5.9200   -4.5660   -1.4810 o         1 MOL     -0.489822
     52 C18        -5.0710   -2.3450   -3.1540 c3        1 MOL     -0.406476
     53 C19        -3.6740   -2.3680   -2.5010 c         1 MOL      0.648880
     54 N6         -2.6340   -2.4640   -3.2860 n         1 MOL     -0.556805
     55 O11        -3.5370   -2.2500   -1.2890 o         1 MOL     -0.748257
     56 H20        -5.6070   -0.1960   -1.8880 hn        1 MOL      0.173494
     57 H21        -7.2230   -2.3570   -2.6190 h1        1 MOL      0.067675
     58 H22        -5.0960   -1.4790   -3.8060 hc        1 MOL      0.114886
     59 H23        -5.2000   -3.2620   -3.7230 hc        1 MOL      0.114886
     60 H24        -2.8080   -2.5670   -4.2680 hn        1 MOL      0.327251
     61 H25        -1.6950   -2.4020   -2.9340 hn        1 MOL      0.327251
     62 N7         -6.2430   -3.0690    0.1090 n         1 MOL     -0.111890
     63 C20        -6.2220   -3.9310    1.2570 c3        1 MOL     -0.356742
     64 C21        -4.9100   -4.5420    1.7050 c         1 MOL      0.543978
     65 O12        -4.8380   -5.6180    2.3430 o         1 MOL     -0.559251
     66 H26        -6.3910   -2.0880    0.2880 hn        1 MOL      0.225312
     67 H27        -6.9660   -4.6920    0.9990 h1        1 MOL      0.142694
     68 H28        -6.6430   -3.3260    2.0640 h1        1 MOL      0.142694
     69 N8         -3.7760   -3.9300    1.3000 n         1 MOL     -0.152276
     70 C22        -2.4440   -4.4480    1.4280 c3        1 MOL     -0.184087
     71 C23        -1.3530   -3.3530    1.4660 c         1 MOL      0.501251
     72 O13        -1.5450   -2.2600    0.9350 o         1 MOL     -0.434908
     73 C24        -2.0800   -5.4270    0.3050 c3        1 MOL      0.575771
     74 C25        -2.6940   -6.8200    0.3160 c3        1 MOL     -0.603679
     75 O14        -2.3040   -4.9360   -0.9950 oh        1 MOL     -0.612955
     76 H29        -3.8970   -3.0940    0.7520 hn        1 MOL      0.047700
     77 H30        -2.4230   -4.9580    2.3840 h1        1 MOL      0.076908
     78 H31        -1.0130   -5.6320    0.4380 h1        1 MOL      0.006933
     79 H32        -3.1650   -4.5160   -0.9070 ho        1 MOL      0.410446
     80 H33        -3.0060   -7.0970    1.3260 hc        1 MOL      0.138485
     81 H34        -3.6820   -6.7040   -0.1240 hc        1 MOL      0.138485
     82 H35        -2.1230   -7.5510   -0.2690 hc        1 MOL      0.138485
     83 N9         -0.1380   -3.7440    1.9790 n         1 MOL     -0.540798
     84 C26         0.9420   -2.7440    2.1190 c3        1 MOL     -0.000728
     85 C27         1.9080   -3.0830    0.9900 c         1 MOL      0.577682
     86 O15         2.4680   -4.2460    0.9470 o         1 MOL     -0.595771
     87 C28         1.7440   -2.8190    3.4260 c3        1 MOL      0.113920
     88 C29         0.8020   -2.8180    4.7080 c3        1 MOL      0.318345
     89 C30         2.7490   -1.6150    3.5050 c3        1 MOL     -0.294498
     90 C31         1.6170   -2.9300    6.0460 c3        1 MOL     -0.238090
     91 H36         0.0900   -4.7210    2.0960 hn        1 MOL      0.294404
     92 H37         0.6010   -1.7250    2.0040 h1        1 MOL      0.100238
     93 H38         2.3640   -3.7170    3.4840 hc        1 MOL     -0.021520
     94 H39         0.1050   -3.6520    4.6500 hc        1 MOL     -0.089088
     95 H40         0.2080   -1.9090    4.6670 hc        1 MOL     -0.089088
     96 H41         3.4640   -1.6480    4.3300 hc        1 MOL      0.056898
     97 H42         3.3190   -1.6540    2.5700 hc        1 MOL      0.056898
     98 H43         2.2050   -0.6810    3.6380 hc        1 MOL      0.056898
     99 H44         2.4320   -2.1940    6.1440 hc        1 MOL      0.040159
    100 H45         0.8670   -2.7420    6.8150 hc        1 MOL      0.040159
    101 H46         1.8730   -3.9670    6.2410 hc        1 MOL      0.040159
    102 N10         2.1030   -2.0750    0.1520 n         1 MOL     -0.386202
    103 C32         2.8620   -1.9670   -1.1600 c3        1 MOL      0.010055
    104 C33         4.3040   -1.4060   -0.8630 c         1 MOL      0.439481
    105 O16         4.5480   -0.6900    0.1310 o         1 MOL     -0.334145
    106 C34         2.0540   -1.0970   -2.1510 c3        1 MOL     -0.119474
    107 C35         0.5890   -1.5980   -2.3000 c         1 MOL      0.640731
    108 O17         0.3780   -2.3410   -3.2930 o         1 MOL     -0.652077
    109 O18        -0.4030   -1.2020   -1.5320 o         1 MOL     -0.652077
    110 H47         1.8060   -1.1640    0.4760 hn        1 MOL      0.333557
    111 H48         2.9590   -2.9280   -1.6530 h1        1 MOL      0.093306
    112 H49         2.5410   -1.0940   -3.1300 hc        1 MOL      0.055333
    113 H50         2.0250   -0.0530   -1.8330 hc        1 MOL      0.055333
    114 N11         5.2800   -1.6140   -1.6910 n         1 MOL     -0.693583
    115 C36         6.6710   -1.2030   -1.3900 c3        1 MOL      0.681859
    116 C37         6.8440    0.3460   -1.2310 c         1 MOL      0.181568
    117 O19         7.6450    0.6720   -0.3840 o         1 MOL     -0.469586
    118 C38         7.5710   -1.8990   -2.4030 c3        1 MOL     -0.419139
    119 C39         8.9750   -1.8530   -2.0130 ca        1 MOL      0.180078
    120 C40         9.8650   -1.2480   -2.8270 ca        1 MOL     -0.190413
    121 C41         9.4060   -2.5420   -0.8160 ca        1 MOL     -0.190413
    122 C42        11.2480   -1.3290   -2.4840 ca        1 MOL     -0.093406
    123 C43        10.7560   -2.4720   -0.4220 ca        1 MOL     -0.093406
    124 C44        11.6860   -1.9320   -1.2680 ca        1 MOL     -0.145742
    125 H51         5.1080   -2.1580   -2.5240 hn        1 MOL      0.305552
    126 H52         6.7430   -1.5820   -0.3630 h1        1 MOL     -0.019040
    127 H53         7.3630   -1.3330   -3.3070 hc        1 MOL      0.113276
    128 H54         7.3100   -2.9590   -2.3860 hc        1 MOL      0.113276
    129 H55         9.6610   -0.8360   -3.8060 ha        1 MOL      0.122291
    130 H56         8.6690   -3.0890   -0.2440 ha        1 MOL      0.122291
    131 H57        12.0220   -0.9640   -3.1470 ha        1 MOL      0.103969
    132 H58        11.0930   -2.8360    0.5400 ha        1 MOL      0.103969
    133 H59        12.7300   -1.8270   -1.0080 ha        1 MOL      0.111460
    134 N12         6.1350    1.2700   -2.0200 n         1 MOL      0.000823
    135 C45         6.0120    2.6970   -1.6830 c3        1 MOL     -0.047349
    136 C46         5.2660    3.1320   -0.3860 c         1 MOL      0.260843
    137 O20         5.2650    4.2830    0.0680 o         1 MOL     -0.492741
    138 C47         5.2450    3.3140   -2.9180 c3        1 MOL     -0.055269
    139 C48         5.6060    2.3430   -4.0300 c3        1 MOL     -0.121037
    140 C49         5.5750    0.9710   -3.3490 c3        1 MOL     -0.082570
    141 H60         7.0360    3.0450   -1.5600 h1        1 MOL      0.099995
    142 H61         4.1560    3.4110   -2.7820 hc        1 MOL      0.068027
    143 H62         5.5940    4.3240   -3.1170 hc        1 MOL      0.068027
    144 H63         4.8800    2.2850   -4.8460 hc        1 MOL      0.049463
    145 H64         6.6370    2.5980   -4.3020 hc        1 MOL      0.049463
    146 H65         4.5120    0.7080   -3.2850 h1        1 MOL      0.066555
    147 H66         6.1330    0.2550   -3.9580 h1        1 MOL      0.066555
    148 N13         4.5950    2.1520    0.2680 n         1 MOL     -0.038351
    149 C50         3.9340    2.3340    1.5480 c3        1 MOL     -0.025028
    150 C51         4.8490    1.7870    2.6730 c         1 MOL      0.475158
    151 O21         4.9280    2.4180    3.6850 o         1 MOL     -0.531529
    152 C52         2.5020    1.7810    1.5340 c3        1 MOL      0.065012
    153 C53         1.5910    2.4000    0.4290 c3        1 MOL     -0.149699
    154 C54         0.2640    1.5610    0.3480 c         1 MOL      0.569070
    155 O22        -0.6770    1.9880   -0.4040 o         1 MOL     -0.736785
    156 O23         0.0620    0.5740    1.1150 o         1 MOL     -0.736785
    157 H67         4.6310    1.2130   -0.1060 hn        1 MOL     -0.005364
    158 H68         3.8180    3.3900    1.7890 h1        1 MOL      0.088704
    159 H69         2.0900    2.1310    2.4840 hc        1 MOL     -0.001865
    160 H70         2.6180    0.6980    1.5540 hc        1 MOL     -0.001865
    161 H71         1.9670    2.3560   -0.5900 hc        1 MOL      0.077301
    162 H72         1.3130    3.4270    0.6740 hc        1 MOL      0.077301
    163 N14         5.7610    0.7970    2.3760 n         1 MOL     -0.146628
    164 C55         6.7210    0.4390    3.3690 c3        1 MOL     -0.199217
    165 H73         7.7240    0.5550    2.9610 h1        1 MOL      0.073472
    166 H74         6.6050    1.0870    4.2370 h1        1 MOL      0.073472
    167 H75         6.5670   -0.5990    3.6650 h1        1 MOL      0.073472
    168 H76         5.5610    0.1390    1.6460 hn        1 MOL      0.151493
    169 Ca1        -2.2960   -0.0240   -0.2160 Ca        1 MOL      1.719958
    170 O24        -3.7550   -0.7830    1.7710 oh        1 MOL     -0.808926
    171 H77        -3.2260   -0.7410    2.5720 ho        1 MOL      0.398352
    172 H78        -4.6640   -0.8340    2.0900 ho        1 MOL      0.398352
    173 O25        -1.6340    0.1280    2.9990 oh        1 MOL     -0.808926
    174 H79        -0.8860    0.0690    2.4040 ho        1 MOL      0.398352
    175 H80        -1.2900    0.5960    3.7620 ho        1 MOL      0.398352
@<TRIPOS>BOND
     1    1    2 1   
     2    1    4 1   
     3    1    5 1   
     4    1    6 1   
     5    2    3 2   
     6    2    7 1   
     7    7    8 1   
     8    7   15 1   
     9    8    9 1   
    10    8   11 1   
    11    8   16 1   
    12    9   10 2   
    13    9   19 1   
    14   11   12 1   
    15   11   17 1   
    16   11   18 1   
    17   12   13 1   
    18   12   14 1   
    19   19   20 1   
    20   19   24 1   
    21   20   21 1   
    22   20   23 1   
    23   20   25 1   
    24   21   22 2   
    25   21   29 1   
    26   23   26 1   
    27   23   27 1   
    28   23   28 1   
    29   29   30 1   
    30   29   37 1   
    31   30   31 1   
    32   30   33 1   
    33   30   38 1   
    34   31   32 2   
    35   31   41 1   
    36   33   34 1   
    37   33   39 1   
    38   33   40 1   
    39   34   35 1   
    40   34   36 1   
    41   41   42 1   
    42   41   45 1   
    43   42   43 1   
    44   42   46 1   
    45   42   47 1   
    46   43   44 2   
    47   43   48 1   
    48   48   49 1   
    49   48   56 1   
    50   49   50 1   
    51   49   52 1   
    52   49   57 1   
    53   50   51 2   
    54   50   62 1   
    55   52   53 1   
    56   52   58 1   
    57   52   59 1   
    58   53   54 1   
    59   53   55 2   
    60   54   60 1   
    61   54   61 1   
    62   62   63 1   
    63   62   66 1   
    64   63   64 1   
    65   63   67 1   
    66   63   68 1   
    67   64   65 2   
    68   64   69 1   
    69   69   70 1   
    70   69   76 1   
    71   70   71 1   
    72   70   73 1   
    73   70   77 1   
    74   71   72 2   
    75   71   83 1   
    76   73   74 1   
    77   73   75 1   
    78   73   78 1   
    79   74   80 1   
    80   74   81 1   
    81   74   82 1   
    82   75   79 1   
    83   83   84 1   
    84   83   91 1   
    85   84   85 1   
    86   84   87 1   
    87   84   92 1   
    88   85   86 2   
    89   85  102 1   
    90   87   88 1   
    91   87   89 1   
    92   87   93 1   
    93   88   90 1   
    94   88   94 1   
    95   88   95 1   
    96   89   96 1   
    97   89   97 1   
    98   89   98 1   
    99   90   99 1   
   100   90  100 1   
   101   90  101 1   
   102  102  103 1   
   103  102  110 1   
   104  103  104 1   
   105  103  106 1   
   106  103  111 1   
   107  104  105 2   
   108  104  114 1   
   109  106  107 1   
   110  106  112 1   
   111  106  113 1   
   112  107  108 1   
   113  107  109 1   
   114  114  115 1   
   115  114  125 1   
   116  115  116 1   
   117  115  118 1   
   118  115  126 1   
   119  116  117 2   
   120  116  134 1   
   121  118  119 1   
   122  118  127 1   
   123  118  128 1   
   124  119  120 ar  
   125  119  121 ar  
   126  120  122 ar  
   127  120  129 1   
   128  121  123 ar  
   129  121  130 1   
   130  122  124 ar  
   131  122  131 1   
   132  123  124 ar  
   133  123  132 1   
   134  124  133 1   
   135  134  135 1   
   136  134  140 1   
   137  135  136 1   
   138  135  138 1   
   139  135  141 1   
   140  136  137 2   
   141  136  148 1   
   142  138  139 1   
   143  138  142 1   
   144  138  143 1   
   145  139  140 1   
   146  139  144 1   
   147  139  145 1   
   148  140  146 1   
   149  140  147 1   
   150  148  149 1   
   151  148  157 1   
   152  149  150 1   
   153  149  152 1   
   154  149  158 1   
   155  150  151 2   
   156  150  163 1   
   157  152  153 1   
   158  152  159 1   
   159  152  160 1   
   160  153  154 1   
   161  153  161 1   
   162  153  162 1   
   163  154  155 1   
   164  154  156 1   
   165  163  164 1   
   166  163  168 1   
   167  164  165 1   
   168  164  166 1   
   169  164  167 1   
   170  170  171 1   
   171  170  172 1   
   172  173  174 1   
   173  173  175 1   
@<TRIPOS>SUBSTRUCTURE
     1 MOL         1 TEMP              0 ****  ****    0 ROOT
