@<TRIPOS>MOLECULE
MOL
  175   173     1     0     0
SMALL
resp


@<TRIPOS>ATOM
      1 C1          0.0860    4.0270    5.5830 c3        1 MOL     -0.343923
      2 C2         -0.5540    3.9220    4.1760 c         1 MOL      0.701712
      3 O1          0.1730    4.0400    3.2030 o         1 MOL     -0.529250
      4 H1          0.0130    5.0540    5.9390 hc        1 MOL      0.078601
      5 H2         -0.4400    3.3660    6.2730 hc        1 MOL      0.078601
      6 H3          1.1350    3.7350    5.5280 hc        1 MOL      0.078601
      7 N1         -1.8480    3.7470    4.0380 n         1 MOL     -0.603043
      8 C3         -2.4530    3.4670    2.7500 c3        1 MOL      0.003916
      9 C4         -2.5940    4.7270    1.8630 c         1 MOL      0.731776
     10 O2         -2.7230    5.8190    2.3960 o         1 MOL     -0.574466
     11 C5         -3.8400    2.8750    3.0650 c3        1 MOL     -0.428970
     12 C6         -4.5950    2.3580    1.8130 c         1 MOL      0.812591
     13 O3         -5.7560    1.9650    1.9590 o         1 MOL     -0.689135
     14 O4         -3.9670    2.1240    0.7260 o         1 MOL     -0.689135
     15 H4         -2.4350    3.7130    4.8660 hn        1 MOL      0.331870
     16 H5         -1.8440    2.6760    2.3090 h1        1 MOL      0.161580
     17 H6         -4.3810    3.7150    3.5180 hc        1 MOL      0.088342
     18 H7         -3.7670    2.0530    3.7790 hc        1 MOL      0.088342
     19 N2         -2.4690    4.5460    0.5130 n         1 MOL     -0.696617
     20 C7         -2.5710    5.6460   -0.4990 c3        1 MOL      0.267466
     21 C8         -3.3910    5.1760   -1.7410 c         1 MOL      0.574556
     22 O5         -3.5910    6.0260   -2.5590 o         1 MOL     -0.594402
     23 C9         -1.1500    6.1520   -0.7900 c3        1 MOL     -0.190103
     24 H8         -2.1410    3.6330    0.2210 hn        1 MOL      0.366651
     25 H9         -3.1150    6.4630   -0.0220 h1        1 MOL      0.009210
     26 H10        -0.5590    6.1370    0.1230 hc        1 MOL      0.046239
     27 H11        -0.6670    5.5380   -1.5540 hc        1 MOL      0.046239
     28 H12        -1.1290    7.1440   -1.2300 hc        1 MOL      0.046239
     29 N3         -3.8780    3.9330   -1.7430 n         1 MOL     -0.484791
     30 C10        -4.6280    3.3820   -2.8870 c3        1 MOL      0.145763
     31 C11        -5.9840    2.5780   -2.6220 c         1 MOL      0.363726
     32 O6         -6.6850    2.3520   -3.6220 o         1 MOL     -0.545981
     33 C12        -3.6140    2.4620   -3.6440 c3        1 MOL     -0.168211
     34 C13        -3.1240    1.2730   -2.8290 c         1 MOL      0.718246
     35 O7         -1.8960    1.0510   -2.8950 o         1 MOL     -0.672919
     36 O8         -3.8190    0.5820   -2.0430 o         1 MOL     -0.672919
     37 H13        -3.6640    3.4400   -0.8840 hn        1 MOL      0.245711
     38 H14        -4.8770    4.1720   -3.5890 h1        1 MOL      0.067204
     39 H15        -2.7140    3.0740   -3.6980 hc        1 MOL      0.043104
     40 H16        -3.9670    2.1610   -4.6360 hc        1 MOL      0.043104
     41 N4         -6.2640    2.1700   -1.3850 n         1 MOL     -0.149568
     42 C14        -7.5080    1.4470   -0.9990 c3        1 MOL     -0.321062
     43 C15        -7.3770   -0.0950   -1.1520 c         1 MOL      0.512696
     44 O9         -8.3890   -0.8000   -0.9180 o         1 MOL     -0.614781
     45 H17        -5.4880    2.2560   -0.7520 hn        1 MOL      0.108643
     46 H18        -8.3450    1.8020   -1.6010 h1        1 MOL      0.159210
     47 H19        -7.7480    1.5840    0.0550 h1        1 MOL      0.159210
     48 N5         -6.2230   -0.6450   -1.5800 n         1 MOL     -0.133330
     49 C16        -6.0510   -1.9410   -2.2120 c3        1 MOL      0.043231
     50 C17        -6.1040   -3.1250   -1.2430 c         1 MOL      0.453736
     51 O10        -6.2740   -4.2490   -1.6650 o         1 MOL     -0.549448
     52 C18        -4.9060   -1.9890   -3.1610 c3        1 MOL     -0.171484
     53 C19        -3.4660   -2.1870   -2.5500 c         1 MOL      0.683238
     54 N6         -2.4830   -2.1780   -3.4430 n         1 MOL     -0.757980
     55 O11        -3.2440   -2.2490   -1.3260 o         1 MOL     -0.533739
     56 H20        -5.4360   -0.0150   -1.6310 hn        1 MOL      0.128753
     57 H21        -6.9630   -1.9820   -2.8150 h1        1 MOL      0.061484
     58 H22        -4.8950   -1.0810   -3.7740 hc        1 MOL      0.045192
     59 H23        -5.0800   -2.8790   -3.7660 hc        1 MOL      0.045192
     60 H24        -2.5820   -2.1040   -4.4520 hn        1 MOL      0.368238
     61 H25        -1.5600   -2.1060   -3.0580 hn        1 MOL      0.368238
     62 N7         -6.1230   -2.7940    0.0200 n         1 MOL     -0.166481
     63 C20        -6.2600   -3.7460    1.1000 c3        1 MOL     -0.198997
     64 C21        -4.9750   -4.4330    1.5350 c         1 MOL      0.518370
     65 O12        -5.0990   -5.3670    2.2790 o         1 MOL     -0.559155
     66 H26        -6.1270   -1.8240    0.3220 hn        1 MOL      0.218332
     67 H27        -7.0260   -4.5040    0.9400 h1        1 MOL      0.098471
     68 H28        -6.6280   -3.1480    1.9350 h1        1 MOL      0.098471
     69 N8         -3.7740   -3.9810    1.1060 n         1 MOL     -0.100227
     70 C22        -2.4320   -4.6840    1.2250 c3        1 MOL     -0.564800
     71 C23        -1.2980   -3.6700    1.3930 c         1 MOL      0.956039
     72 O13        -1.4040   -2.5310    0.8770 o         1 MOL     -0.638602
     73 C24        -2.1230   -5.6030    0.0660 c3        1 MOL      0.561119
     74 C25        -3.1050   -6.8050    0.0740 c3        1 MOL     -0.583286
     75 O14        -2.2710   -4.9220   -1.1550 oh        1 MOL     -0.569720
     76 H29        -3.8300   -3.1290    0.5800 hn        1 MOL      0.118693
     77 H30        -2.3710   -5.2670    2.1410 h1        1 MOL      0.161874
     78 H31        -1.0600   -5.8290    0.0560 h1        1 MOL     -0.007635
     79 H32        -2.5120   -4.0280   -0.9100 ho        1 MOL      0.302433
     80 H33        -4.1190   -6.4170   -0.0580 hc        1 MOL      0.147713
     81 H34        -2.9500   -7.5830   -0.6830 hc        1 MOL      0.147713
     82 H35        -3.0250   -7.2200    1.0740 hc        1 MOL      0.147713
     83 N9         -0.2130   -4.0270    2.0630 n         1 MOL     -0.838050
     84 C26         1.0170   -3.1440    2.0340 c3        1 MOL      0.100314
     85 C27         1.7390   -3.4220    0.6690 c         1 MOL      0.419455
     86 O15         1.8410   -4.5660    0.2470 o         1 MOL     -0.520351
     87 C28         1.9450   -3.3050    3.2870 c3        1 MOL      0.296263
     88 C29         1.2160   -3.7690    4.5410 c3        1 MOL      0.165660
     89 C30         2.6470   -1.9240    3.5360 c3        1 MOL     -0.637903
     90 C31         2.2420   -4.3440    5.6170 c3        1 MOL     -0.125783
     91 H36        -0.1410   -4.9310    2.5110 hn        1 MOL      0.372234
     92 H37         0.7370   -2.0880    2.0190 h1        1 MOL      0.079618
     93 H38         2.6670   -4.0820    3.0180 hc        1 MOL     -0.056011
     94 H39         0.5050   -4.5910    4.3950 hc        1 MOL     -0.045507
     95 H40         0.6750   -2.8960    4.9080 hc        1 MOL     -0.045507
     96 H41         3.1770   -1.6200    2.6410 hc        1 MOL      0.146261
     97 H42         1.8990   -1.1720    3.8070 hc        1 MOL      0.146261
     98 H43         3.3430   -2.0030    4.3690 hc        1 MOL      0.146261
     99 H44         1.7570   -4.5230    6.5860 hc        1 MOL      0.016790
    100 H45         2.5630   -5.2840    5.1660 hc        1 MOL      0.016790
    101 H46         3.1220   -3.7520    5.8200 hc        1 MOL      0.016790
    102 N10         1.9540   -2.3030   -0.0660 n         1 MOL     -0.165636
    103 C32         2.8160   -2.1210   -1.2470 c3        1 MOL     -0.054861
    104 C33         4.2070   -1.5700   -0.8660 c         1 MOL      0.397836
    105 O16         4.4320   -0.8510    0.1580 o         1 MOL     -0.350671
    106 C34         2.1560   -1.1240   -2.2540 c3        1 MOL     -0.132105
    107 C35         0.6410   -1.4260   -2.4040 c         1 MOL      0.597704
    108 O17         0.2500   -1.7820   -3.5610 o         1 MOL     -0.635145
    109 O18        -0.2100   -1.0660   -1.5220 o         1 MOL     -0.635145
    110 H47         1.4620   -1.4600    0.2080 hn        1 MOL      0.235350
    111 H48         2.8900   -3.0500   -1.8080 h1        1 MOL      0.082525
    112 H49         2.6790   -1.1370   -3.2100 hc        1 MOL      0.063139
    113 H50         2.2430   -0.0760   -1.9760 hc        1 MOL      0.063139
    114 N11         5.1920   -1.6480   -1.8020 n         1 MOL     -0.604738
    115 C36         6.5970   -1.2120   -1.5350 c3        1 MOL      0.478863
    116 C37         6.8220    0.2670   -0.9490 c         1 MOL      0.184381
    117 O19         7.4440    0.4440    0.1180 o         1 MOL     -0.478647
    118 C38         7.6260   -1.7200   -2.5580 c3        1 MOL     -0.316724
    119 C39         9.1440   -1.6050   -2.3150 ca        1 MOL      0.326560
    120 C40         9.9670   -0.8080   -3.1480 ca        1 MOL     -0.363032
    121 C41         9.8190   -2.1720   -1.2200 ca        1 MOL     -0.363032
    122 C42        11.2970   -0.5240   -2.8380 ca        1 MOL      0.056490
    123 C43        11.1830   -1.8430   -0.8990 ca        1 MOL      0.056490
    124 C44        11.9530   -1.1130   -1.7850 ca        1 MOL     -0.229590
    125 H51         4.9300   -2.0070   -2.7040 hn        1 MOL      0.317365
    126 H52         6.8050   -1.8380   -0.6710 h1        1 MOL      0.030777
    127 H53         7.3270   -1.4160   -3.5660 hc        1 MOL      0.065971
    128 H54         7.4310   -2.7910   -2.5750 hc        1 MOL      0.065971
    129 H55         9.4450   -0.3760   -3.9890 ha        1 MOL      0.149726
    130 H56         9.3780   -2.9230   -0.5830 ha        1 MOL      0.149726
    131 H57        11.8910    0.1550   -3.4320 ha        1 MOL      0.075780
    132 H58        11.6180   -2.2590    0.0030 ha        1 MOL      0.075780
    133 H59        13.0230   -0.9840   -1.7110 ha        1 MOL      0.118514
    134 N12         6.4010    1.3080   -1.5650 n         1 MOL     -0.011198
    135 C45         6.3570    2.6890   -1.0710 c3        1 MOL      0.020364
    136 C46         5.6120    2.9140    0.1790 c         1 MOL      0.271349
    137 O20         6.0530    3.7430    1.0130 o         1 MOL     -0.496580
    138 C47         5.7840    3.4770   -2.2150 c3        1 MOL      0.156115
    139 C48         5.8850    2.6200   -3.4780 c3        1 MOL     -0.123660
    140 C49         5.7870    1.2360   -2.8770 c3        1 MOL     -0.036655
    141 H60         7.4090    2.9990   -1.0060 h1        1 MOL      0.067193
    142 H61         4.7360    3.7020   -2.0150 hc        1 MOL     -0.010951
    143 H62         6.2800    4.4410   -2.3720 hc        1 MOL     -0.010951
    144 H63         5.0760    2.8030   -4.1930 hc        1 MOL      0.035697
    145 H64         6.8830    2.7070   -3.9020 hc        1 MOL      0.035697
    146 H65         4.7360    0.9530   -2.9280 h1        1 MOL      0.044760
    147 H66         6.2540    0.4800   -3.5150 h1        1 MOL      0.044760
    148 N13         4.4650    2.2980    0.4400 n         1 MOL     -0.145035
    149 C50         3.8520    2.4590    1.7930 c3        1 MOL     -0.018419
    150 C51         4.7100    1.7040    2.8820 c         1 MOL      0.341787
    151 O21         4.7600    2.1470    4.0710 o         1 MOL     -0.559148
    152 C52         2.4450    1.7300    1.8130 c3        1 MOL     -0.060878
    153 C53         1.5050    2.2900    0.6760 c3        1 MOL     -0.302662
    154 C54         0.0870    1.6380    0.6850 c         1 MOL      0.627491
    155 O22        -0.8840    2.1820    0.0460 o         1 MOL     -0.690879
    156 O23        -0.0190    0.5150    1.2170 o         1 MOL     -0.690879
    157 H67         4.1020    1.5390   -0.1230 hn        1 MOL      0.155078
    158 H68         3.7860    3.4730    2.1920 h1        1 MOL      0.126445
    159 H69         1.9210    1.8840    2.7650 hc        1 MOL      0.059571
    160 H70         2.5250    0.6620    1.6480 hc        1 MOL      0.059571
    161 H71         1.9060    2.1130   -0.3270 hc        1 MOL      0.106934
    162 H72         1.3660    3.3450    0.8950 hc        1 MOL      0.106934
    163 N14         5.4270    0.6590    2.4690 n         1 MOL      0.118558
    164 C55         6.3380   -0.1600    3.3260 c3        1 MOL     -0.245101
    165 H73         6.2840    0.1930    4.3550 h1        1 MOL      0.084344
    166 H74         6.0340   -1.2070    3.2850 h1        1 MOL      0.084344
    167 H75         7.3620   -0.0660    2.9630 h1        1 MOL      0.084344
    168 H76         5.3190    0.3470    1.5140 hn        1 MOL     -0.004155
    169 Ca1        -2.2100   -0.0690   -0.2000 Ca        1 MOL      1.662305
    170 O24        -2.2120   -0.0920    2.6510 oh        1 MOL     -0.893470
    171 H77        -2.5330    0.1490    3.5180 ho        1 MOL      0.433718
    172 H78        -1.2660    0.0680    2.6790 ho        1 MOL      0.433718
    173 O25        -4.2400   -1.0760    1.2720 oh        1 MOL     -0.893470
    174 H79        -5.0530   -0.5950    1.4630 ho        1 MOL      0.433718
    175 H80        -3.6400   -0.8260    1.9790 ho        1 MOL      0.433718
@<TRIPOS>BOND
     1    1    2 1   
     2    1    4 1   
     3    1    5 1   
     4    1    6 1   
     5    2    3 2   
     6    2    7 1   
     7    7    8 1   
     8    7   15 1   
     9    8    9 1   
    10    8   11 1   
    11    8   16 1   
    12    9   10 2   
    13    9   19 1   
    14   11   12 1   
    15   11   17 1   
    16   11   18 1   
    17   12   13 1   
    18   12   14 1   
    19   19   20 1   
    20   19   24 1   
    21   20   21 1   
    22   20   23 1   
    23   20   25 1   
    24   21   22 2   
    25   21   29 1   
    26   23   26 1   
    27   23   27 1   
    28   23   28 1   
    29   29   30 1   
    30   29   37 1   
    31   30   31 1   
    32   30   33 1   
    33   30   38 1   
    34   31   32 2   
    35   31   41 1   
    36   33   34 1   
    37   33   39 1   
    38   33   40 1   
    39   34   35 1   
    40   34   36 1   
    41   41   42 1   
    42   41   45 1   
    43   42   43 1   
    44   42   46 1   
    45   42   47 1   
    46   43   44 2   
    47   43   48 1   
    48   48   49 1   
    49   48   56 1   
    50   49   50 1   
    51   49   52 1   
    52   49   57 1   
    53   50   51 2   
    54   50   62 1   
    55   52   53 1   
    56   52   58 1   
    57   52   59 1   
    58   53   54 1   
    59   53   55 2   
    60   54   60 1   
    61   54   61 1   
    62   62   63 1   
    63   62   66 1   
    64   63   64 1   
    65   63   67 1   
    66   63   68 1   
    67   64   65 2   
    68   64   69 1   
    69   69   70 1   
    70   69   76 1   
    71   70   71 1   
    72   70   73 1   
    73   70   77 1   
    74   71   72 2   
    75   71   83 1   
    76   73   74 1   
    77   73   75 1   
    78   73   78 1   
    79   74   80 1   
    80   74   81 1   
    81   74   82 1   
    82   75   79 1   
    83   83   84 1   
    84   83   91 1   
    85   84   85 1   
    86   84   87 1   
    87   84   92 1   
    88   85   86 2   
    89   85  102 1   
    90   87   88 1   
    91   87   89 1   
    92   87   93 1   
    93   88   90 1   
    94   88   94 1   
    95   88   95 1   
    96   89   96 1   
    97   89   97 1   
    98   89   98 1   
    99   90   99 1   
   100   90  100 1   
   101   90  101 1   
   102  102  103 1   
   103  102  110 1   
   104  103  104 1   
   105  103  106 1   
   106  103  111 1   
   107  104  105 2   
   108  104  114 1   
   109  106  107 1   
   110  106  112 1   
   111  106  113 1   
   112  107  108 1   
   113  107  109 1   
   114  114  115 1   
   115  114  125 1   
   116  115  116 1   
   117  115  118 1   
   118  115  126 1   
   119  116  117 2   
   120  116  134 1   
   121  118  119 1   
   122  118  127 1   
   123  118  128 1   
   124  119  120 ar  
   125  119  121 ar  
   126  120  122 ar  
   127  120  129 1   
   128  121  123 ar  
   129  121  130 1   
   130  122  124 ar  
   131  122  131 1   
   132  123  124 ar  
   133  123  132 1   
   134  124  133 1   
   135  134  135 1   
   136  134  140 1   
   137  135  136 1   
   138  135  138 1   
   139  135  141 1   
   140  136  137 2   
   141  136  148 1   
   142  138  139 1   
   143  138  142 1   
   144  138  143 1   
   145  139  140 1   
   146  139  144 1   
   147  139  145 1   
   148  140  146 1   
   149  140  147 1   
   150  148  149 1   
   151  148  157 1   
   152  149  150 1   
   153  149  152 1   
   154  149  158 1   
   155  150  151 2   
   156  150  163 1   
   157  152  153 1   
   158  152  159 1   
   159  152  160 1   
   160  153  154 1   
   161  153  161 1   
   162  153  162 1   
   163  154  155 1   
   164  154  156 1   
   165  163  164 1   
   166  163  168 1   
   167  164  165 1   
   168  164  166 1   
   169  164  167 1   
   170  170  171 1   
   171  170  172 1   
   172  173  174 1   
   173  173  175 1   
@<TRIPOS>SUBSTRUCTURE
     1 MOL         1 TEMP              0 ****  ****    0 ROOT
