@<TRIPOS>MOLECULE
MOL
  179   176     1     0     0
SMALL
resp


@<TRIPOS>ATOM
      1 C1          1.5480    4.1520    3.5970 c3        1 MOL     -0.250525
      2 C2          0.6860    3.5710    2.4900 c         1 MOL      0.485508
      3 O1          1.0550    3.6500    1.3240 o         1 MOL     -0.557297
      4 H1          0.9110    4.4900    4.4130 hc        1 MOL      0.065783
      5 H2          2.2330    3.3870    3.9630 hc        1 MOL      0.065783
      6 H3          2.1180    4.9960    3.2090 hc        1 MOL      0.065783
      7 N1         -0.4000    2.9680    2.8530 n         1 MOL     -0.432145
      8 C3         -1.5030    2.4910    2.0300 c3        1 MOL     -0.041888
      9 C4         -2.3680    3.7170    1.5750 c         1 MOL      0.668428
     10 O2         -3.4640    3.9430    2.0260 o         1 MOL     -0.507486
     11 C5         -2.3670    1.4080    2.7700 c3        1 MOL     -0.178155
     12 C6         -3.2770    0.6450    1.8700 c         1 MOL      0.714310
     13 O3         -4.4750    0.4490    2.2310 o         1 MOL     -0.709115
     14 O4         -2.7960    0.1880    0.7890 o         1 MOL     -0.709115
     15 H4         -0.4400    2.7070    3.8230 hn        1 MOL      0.303438
     16 H5         -1.1160    2.0010    1.1380 h1        1 MOL      0.095105
     17 H6         -2.8390    1.8620    3.6440 hc        1 MOL      0.058479
     18 H7         -1.6830    0.7440    3.2940 hc        1 MOL      0.058479
     19 N2         -1.9330    4.4810    0.5170 n         1 MOL     -0.643942
     20 C7         -2.6510    5.6860    0.1130 c3        1 MOL      0.043211
     21 C8         -3.8310    5.2450   -0.8540 c         1 MOL      0.432954
     22 O5         -4.9240    5.7950   -0.7460 o         1 MOL     -0.512865
     23 C9         -1.6760    6.6330   -0.6470 c3        1 MOL     -0.113171
     24 C10        -0.4720    7.1380    0.1220 c3        1 MOL      0.175430
     25 C11         0.1380    8.3420   -0.6410 c3        1 MOL     -0.138982
     26 C12         1.2690    8.9540    0.1730 c3        1 MOL      0.069804
     27 N3          2.4650    8.1570    0.4660 n4        1 MOL     -0.420257
     28 H8         -1.1560    4.1700   -0.0600 hn        1 MOL      0.416832
     29 H9         -3.0840    6.1950    0.9720 h1        1 MOL      0.108994
     30 H10        -2.2830    7.4700   -1.0020 hc        1 MOL      0.024791
     31 H11        -1.3920    6.0130   -1.5000 hc        1 MOL      0.024791
     32 H12         0.2740    6.3450    0.1620 hc        1 MOL     -0.013440
     33 H13        -0.7250    7.5250    1.1120 hc        1 MOL     -0.013440
     34 H14        -0.6690    9.0620   -0.7280 hc        1 MOL      0.076388
     35 H15         0.6230    8.0940   -1.5830 hc        1 MOL      0.076388
     36 H16         0.7440    9.1680    1.1070 hx        1 MOL      0.065149
     37 H17         1.5000    9.9480   -0.2270 hx        1 MOL      0.065149
     38 H18         2.2370    7.2490    0.8400 hn        1 MOL      0.350413
     39 H19         3.0400    8.1120   -0.3600 hn        1 MOL      0.350413
     40 H20         3.0400    8.5800    1.1820 hn        1 MOL      0.350413
     41 N4         -3.6010    4.1470   -1.6140 n         1 MOL     -0.323742
     42 C13        -4.6850    3.6630   -2.4810 c3        1 MOL      0.031002
     43 C14        -5.8860    3.1270   -1.6620 c         1 MOL      0.442183
     44 O6         -7.0700    3.2970   -2.0240 o         1 MOL     -0.527623
     45 C15        -4.0400    2.5370   -3.4470 c3        1 MOL     -0.333062
     46 C16        -3.2460    1.4660   -2.7500 c         1 MOL      0.771259
     47 O7         -3.6560    0.2920   -2.8280 o         1 MOL     -0.760108
     48 O8         -2.2850    1.7030   -1.9650 o         1 MOL     -0.760108
     49 H21        -2.6810    3.7620   -1.4770 hn        1 MOL      0.262782
     50 H22        -5.0680    4.4660   -3.1070 h1        1 MOL      0.087678
     51 H23        -3.3090    3.0150   -4.0940 hc        1 MOL      0.096629
     52 H24        -4.8350    2.1180   -4.0630 hc        1 MOL      0.096629
     53 N5         -5.5980    2.5020   -0.4790 n         1 MOL     -0.031248
     54 C17        -6.6500    1.9380    0.3830 c3        1 MOL     -0.216690
     55 C18        -7.0500    0.5370    0.1160 c         1 MOL      0.561689
     56 O9         -8.1140    0.1750    0.5360 o         1 MOL     -0.558357
     57 H25        -4.7100    2.5670   -0.0050 hn        1 MOL      0.150058
     58 H26        -7.5300    2.5570    0.2450 h1        1 MOL      0.111579
     59 H27        -6.3500    2.1270    1.4180 h1        1 MOL      0.111579
     60 N6         -6.2190   -0.3380   -0.4970 n         1 MOL     -0.287361
     61 C19        -6.4260   -1.7020   -0.7570 c3        1 MOL      0.087951
     62 C20        -6.1020   -2.5970    0.4700 c         1 MOL      0.432517
     63 O10        -6.5220   -3.7830    0.4440 o         1 MOL     -0.550992
     64 C21        -5.8170   -2.2290   -2.1180 c3        1 MOL     -0.206329
     65 C22        -4.2680   -2.5720   -2.1620 c         1 MOL      0.594469
     66 N7         -3.7740   -3.2470   -3.1980 n         1 MOL     -0.749004
     67 O11        -3.5820   -2.1450   -1.2430 o         1 MOL     -0.485134
     68 H28        -5.3950    0.1050   -0.8810 hn        1 MOL      0.136709
     69 H29        -7.4920   -1.8970   -0.8290 h1        1 MOL      0.065186
     70 H30        -6.1390   -1.5390   -2.9010 hc        1 MOL      0.076285
     71 H31        -6.3590   -3.1520   -2.2940 hc        1 MOL      0.076285
     72 H32        -4.4350   -3.7150   -3.7970 hn        1 MOL      0.345247
     73 H33        -2.7880   -3.4730   -3.2100 hn        1 MOL      0.345247
     74 N8         -5.4340   -2.0710    1.5000 n         1 MOL     -0.270153
     75 C23        -5.3720   -2.6400    2.8310 c3        1 MOL     -0.180601
     76 C24        -4.1170   -3.5110    3.1570 c         1 MOL      0.417911
     77 O12        -3.9850   -3.9430    4.2890 o         1 MOL     -0.555369
     78 H34        -5.0970   -1.1210    1.4470 hn        1 MOL      0.361892
     79 H35        -6.2580   -3.2490    3.0170 h1        1 MOL      0.122180
     80 H36        -5.4330   -1.9150    3.6350 h1        1 MOL      0.122180
     81 N9         -3.1550   -3.5350    2.2540 n         1 MOL     -0.021151
     82 C25        -1.7860   -3.9780    2.4400 c3        1 MOL     -0.018875
     83 C26        -0.7930   -3.0550    1.6510 c         1 MOL      0.399462
     84 O13        -1.1980   -2.4560    0.6750 o         1 MOL     -0.502583
     85 C27        -1.6510   -5.3870    2.1250 c3        1 MOL     -0.108504
     86 C28        -1.9190   -5.6940    0.6590 ca        1 MOL      0.023789
     87 C29        -0.8700   -5.6570   -0.3050 ca        1 MOL     -0.183470
     88 C30        -3.2590   -5.9950    0.2220 ca        1 MOL     -0.183470
     89 C31        -1.1450   -5.9680   -1.6570 ca        1 MOL     -0.252604
     90 C32        -3.5350   -6.1670   -1.1790 ca        1 MOL     -0.252604
     91 C33        -2.4520   -6.2610   -2.0620 ca        1 MOL      0.396127
     92 O14        -2.6900   -6.5010   -3.3140 oh        1 MOL     -0.571530
     93 H37        -3.3460   -2.8500    1.5280 hn        1 MOL      0.072624
     94 H38        -1.4920   -4.0240    3.4870 h1        1 MOL      0.058760
     95 H39        -2.3180   -6.0380    2.6890 hc        1 MOL      0.073257
     96 H40        -0.6360   -5.7070    2.3700 hc        1 MOL      0.073257
     97 H41         0.1000   -5.4250    0.1020 ha        1 MOL      0.159469
     98 H42        -4.1300   -5.9550    0.8650 ha        1 MOL      0.159469
     99 H43        -0.3270   -6.0070   -2.3590 ha        1 MOL      0.129286
    100 H44        -4.5550   -6.2890   -1.5090 ha        1 MOL      0.129286
    101 H45        -3.6150   -6.5580   -3.5360 ho        1 MOL      0.426935
    102 N10         0.4420   -2.9930    2.0900 n         1 MOL     -0.390107
    103 C34         1.5960   -2.2690    1.5440 c3        1 MOL     -0.022302
    104 C35         2.8040   -3.2240    1.2940 c         1 MOL      0.417921
    105 O15         2.9530   -4.2130    2.0320 o         1 MOL     -0.537591
    106 C36         2.0450   -1.0510    2.4480 c3        1 MOL      0.157826
    107 C37         2.5220   -1.5400    3.8530 c3        1 MOL     -0.185280
    108 C38         0.8930   -0.0720    2.4340 c3        1 MOL     -0.471239
    109 C39         3.1140   -0.2910    4.6840 c3        1 MOL     -0.089777
    110 H46         0.5870   -3.5440    2.9130 hn        1 MOL      0.286463
    111 H47         1.2690   -1.8980    0.5700 h1        1 MOL      0.094540
    112 H48         2.8540   -0.6000    1.8800 hc        1 MOL     -0.032518
    113 H49         3.3490   -2.2280    3.7730 hc        1 MOL      0.086982
    114 H50         1.7420   -2.0240    4.4490 hc        1 MOL      0.086982
    115 H51         0.2140   -0.3190    3.2560 hc        1 MOL      0.146971
    116 H52         1.2160    0.9560    2.5420 hc        1 MOL      0.146971
    117 H53         0.4170   -0.1680    1.4560 hc        1 MOL      0.146971
    118 H54         2.2670    0.1590    5.1910 hc        1 MOL      0.031284
    119 H55         3.7750   -0.5630    5.5190 hc        1 MOL      0.031284
    120 H56         3.6420    0.3990    4.0260 hc        1 MOL      0.031284
    121 N11         3.6470   -2.8830    0.3580 n         1 MOL     -0.306912
    122 C40         4.9370   -3.4410   -0.0540 c3        1 MOL      0.154881
    123 C41         6.1470   -2.5420    0.2890 c         1 MOL      0.449919
    124 O16         6.0700   -1.3710    0.6800 o         1 MOL     -0.436405
    125 C42         4.9340   -3.6640   -1.5520 c3        1 MOL     -0.224727
    126 O17         5.0200   -2.3870   -2.2140 oh        1 MOL     -0.490944
    127 H57         3.4070   -2.0570   -0.1770 hn        1 MOL      0.201218
    128 H58         5.0760   -4.4050    0.4270 h1        1 MOL      0.064214
    129 H59         4.0560   -4.1790   -1.9410 h1        1 MOL      0.126318
    130 H60         5.7840   -4.3280   -1.7210 h1        1 MOL      0.126318
    131 H61         5.0920   -2.5220   -3.1620 ho        1 MOL      0.399797
    132 N12         7.3820   -2.9990    0.0620 n         1 MOL     -0.456587
    133 C43         8.6410   -2.1720    0.2760 c3        1 MOL      0.098706
    134 C44         8.7370   -0.8370   -0.5400 c         1 MOL      0.527536
    135 O18         9.0780    0.2080   -0.0570 o         1 MOL     -0.518519
    136 C45         9.8510   -3.0490    0.1360 c3        1 MOL     -0.246210
    137 H62         7.4390   -4.0010    0.0130 hn        1 MOL      0.280838
    138 H63         8.5820   -1.8620    1.3270 h1        1 MOL      0.083467
    139 H64        10.6680   -2.4750    0.5930 hc        1 MOL      0.077538
    140 H65         9.8260   -4.0540    0.5660 hc        1 MOL      0.077538
    141 H66        10.0630   -3.2080   -0.9170 hc        1 MOL      0.077538
    142 N13         8.2780   -0.9110   -1.7490 n         1 MOL     -0.405197
    143 C46         8.0620    0.3100   -2.5620 c3        1 MOL      0.106816
    144 C47         7.1490    1.3500   -1.8490 c         1 MOL      0.400101
    145 O19         7.5350    2.4750   -1.8730 o         1 MOL     -0.492442
    146 C48         7.5050   -0.0840   -3.9150 c3        1 MOL     -0.216032
    147 H67         7.9290   -1.8130   -2.0600 hn        1 MOL      0.240512
    148 H68         9.0230    0.8140   -2.6930 h1        1 MOL      0.080599
    149 H69         8.1080   -0.7570   -4.5070 hc        1 MOL      0.057388
    150 H70         6.5660   -0.5770   -3.6590 hc        1 MOL      0.057388
    151 H71         7.2400    0.7780   -4.5210 hc        1 MOL      0.057388
    152 N14         5.9510    0.9840   -1.3800 n         1 MOL     -0.092142
    153 C49         5.0570    1.8770   -0.7620 c3        1 MOL     -0.362654
    154 C50         5.7220    2.4800    0.5060 c         1 MOL      0.484247
    155 O20         5.4600    3.6710    0.8100 o         1 MOL     -0.575525
    156 C51         3.7060    1.1740   -0.4950 c3        1 MOL      0.069423
    157 C52         2.8440    1.0930   -1.7900 c3        1 MOL     -0.164066
    158 C53         1.4260    0.5770   -1.4110 c         1 MOL      0.913162
    159 O21         1.2260   -0.6670   -1.3720 o         1 MOL     -0.797263
    160 O22         0.4740    1.3130   -1.1000 o         1 MOL     -0.797263
    161 H72         5.6020    0.0520   -1.5330 hn        1 MOL      0.243419
    162 H73         4.8250    2.6520   -1.5020 h1        1 MOL      0.148269
    163 H74         3.1730    1.7770    0.2420 hc        1 MOL      0.079070
    164 H75         3.8480    0.1960   -0.0420 hc        1 MOL      0.079070
    165 H76         3.3160    0.4320   -2.5180 hc        1 MOL     -0.008516
    166 H77         2.6140    2.0870   -2.1850 hc        1 MOL     -0.008516
    167 N15         6.5430    1.6840    1.1440 n         1 MOL     -0.007542
    168 C54         7.1600    2.0970    2.4260 c3        1 MOL     -0.370778
    169 H78         6.4010    2.5460    3.0660 h1        1 MOL      0.131737
    170 H79         7.5830    1.2240    2.9240 h1        1 MOL      0.131737
    171 H80         7.9490    2.8230    2.2330 h1        1 MOL      0.131737
    172 H81         6.6990    0.7320    0.8330 hn        1 MOL      0.104159
    173 Ca1        -1.4940   -0.6100   -1.2380 Ca        1 MOL      1.718297
    174 O23        -0.4230   -0.3700   -3.7810 oh        1 MOL     -0.817100
    175 H82        -0.6140   -0.9880   -4.4780 ho        1 MOL      0.401715
    176 H83        -0.3330    0.4780   -4.2380 ho        1 MOL      0.401715
    177 O24        -0.6570   -2.9950   -2.0620 oh        1 MOL     -0.817100
    178 H84        -0.8280   -3.7920   -1.5500 ho        1 MOL      0.401715
    179 H85         0.2730   -3.0530   -2.2840 ho        1 MOL      0.401715
@<TRIPOS>BOND
     1    1    2 1   
     2    1    4 1   
     3    1    5 1   
     4    1    6 1   
     5    2    3 2   
     6    2    7 1   
     7    7    8 1   
     8    7   15 1   
     9    8    9 1   
    10    8   11 1   
    11    8   16 1   
    12    9   10 2   
    13    9   19 1   
    14   11   12 1   
    15   11   17 1   
    16   11   18 1   
    17   12   13 1   
    18   12   14 1   
    19   19   20 1   
    20   19   28 1   
    21   20   21 1   
    22   20   23 1   
    23   20   29 1   
    24   21   22 2   
    25   21   41 1   
    26   23   24 1   
    27   23   30 1   
    28   23   31 1   
    29   24   25 1   
    30   24   32 1   
    31   24   33 1   
    32   25   26 1   
    33   25   34 1   
    34   25   35 1   
    35   26   27 1   
    36   26   36 1   
    37   26   37 1   
    38   27   38 1   
    39   27   39 1   
    40   27   40 1   
    41   41   42 1   
    42   41   49 1   
    43   42   43 1   
    44   42   45 1   
    45   42   50 1   
    46   43   44 2   
    47   43   53 1   
    48   45   46 1   
    49   45   51 1   
    50   45   52 1   
    51   46   47 1   
    52   46   48 1   
    53   53   54 1   
    54   53   57 1   
    55   54   55 1   
    56   54   58 1   
    57   54   59 1   
    58   55   56 2   
    59   55   60 1   
    60   60   61 1   
    61   60   68 1   
    62   61   62 1   
    63   61   64 1   
    64   61   69 1   
    65   62   63 2   
    66   62   74 1   
    67   64   65 1   
    68   64   70 1   
    69   64   71 1   
    70   65   66 1   
    71   65   67 2   
    72   66   72 1   
    73   66   73 1   
    74   74   75 1   
    75   74   78 1   
    76   75   76 1   
    77   75   79 1   
    78   75   80 1   
    79   76   77 2   
    80   76   81 1   
    81   81   82 1   
    82   81   93 1   
    83   82   83 1   
    84   82   85 1   
    85   82   94 1   
    86   83   84 2   
    87   83  102 1   
    88   85   86 1   
    89   85   95 1   
    90   85   96 1   
    91   86   87 ar  
    92   86   88 ar  
    93   87   89 ar  
    94   87   97 1   
    95   88   90 ar  
    96   88   98 1   
    97   89   91 ar  
    98   89   99 1   
    99   90   91 ar  
   100   90  100 1   
   101   91   92 1   
   102   92  101 1   
   103  102  103 1   
   104  102  110 1   
   105  103  104 1   
   106  103  106 1   
   107  103  111 1   
   108  104  105 2   
   109  104  121 1   
   110  106  107 1   
   111  106  108 1   
   112  106  112 1   
   113  107  109 1   
   114  107  113 1   
   115  107  114 1   
   116  108  115 1   
   117  108  116 1   
   118  108  117 1   
   119  109  118 1   
   120  109  119 1   
   121  109  120 1   
   122  121  122 1   
   123  121  127 1   
   124  122  123 1   
   125  122  125 1   
   126  122  128 1   
   127  123  124 2   
   128  123  132 1   
   129  125  126 1   
   130  125  129 1   
   131  125  130 1   
   132  126  131 1   
   133  132  133 1   
   134  132  137 1   
   135  133  134 1   
   136  133  136 1   
   137  133  138 1   
   138  134  135 2   
   139  134  142 1   
   140  136  139 1   
   141  136  140 1   
   142  136  141 1   
   143  142  143 1   
   144  142  147 1   
   145  143  144 1   
   146  143  146 1   
   147  143  148 1   
   148  144  145 2   
   149  144  152 1   
   150  146  149 1   
   151  146  150 1   
   152  146  151 1   
   153  152  153 1   
   154  152  161 1   
   155  153  154 1   
   156  153  156 1   
   157  153  162 1   
   158  154  155 2   
   159  154  167 1   
   160  156  157 1   
   161  156  163 1   
   162  156  164 1   
   163  157  158 1   
   164  157  165 1   
   165  157  166 1   
   166  158  159 1   
   167  158  160 1   
   168  167  168 1   
   169  167  172 1   
   170  168  169 1   
   171  168  170 1   
   172  168  171 1   
   173  174  175 1   
   174  174  176 1   
   175  177  178 1   
   176  177  179 1   
@<TRIPOS>SUBSTRUCTURE
     1 MOL         1 TEMP              0 ****  ****    0 ROOT
