@<TRIPOS>MOLECULE
MOL
  175   173     1     0     0
SMALL
resp


@<TRIPOS>ATOM
      1 C1          0.5230    4.1590    5.1820 c3        1 MOL     -0.367515
      2 C2         -0.1940    4.0380    3.8420 c         1 MOL      0.773053
      3 O1          0.4470    4.1710    2.7970 o         1 MOL     -0.569755
      4 H1          0.4460    3.2150    5.7210 hc        1 MOL      0.086957
      5 H2          1.5730    4.3960    5.0130 hc        1 MOL      0.086957
      6 H3          0.0620    4.9530    5.7710 hc        1 MOL      0.086957
      7 N1         -1.4950    3.9220    3.7840 n         1 MOL     -0.751184
      8 C3         -2.2290    3.7340    2.5360 c3        1 MOL      0.291327
      9 C4         -2.4010    4.9490    1.6740 c         1 MOL      0.637827
     10 O2         -2.6620    6.0790    2.1820 o         1 MOL     -0.599791
     11 C5         -3.5170    2.9290    2.8150 c3        1 MOL     -0.374908
     12 C6         -4.2060    2.6400    1.5480 c         1 MOL      0.716770
     13 O3         -5.3020    3.2220    1.3280 o         1 MOL     -0.650092
     14 O4         -3.7170    1.9520    0.6780 o         1 MOL     -0.650092
     15 H4         -2.0590    4.1340    4.5970 hn        1 MOL      0.340364
     16 H5         -1.6070    3.0770    1.9250 h1        1 MOL      0.083978
     17 H6         -4.2130    3.5280    3.3970 hc        1 MOL      0.072954
     18 H7         -3.3060    1.9620    3.2820 hc        1 MOL      0.072954
     19 N2         -2.3280    4.7430    0.3700 n         1 MOL     -0.754268
     20 C7         -2.8460    5.6380   -0.6690 c3        1 MOL      0.637538
     21 C8         -3.8600    5.0320   -1.6710 c         1 MOL      0.289884
     22 O5         -4.0900    5.6690   -2.6750 o         1 MOL     -0.556624
     23 C9         -1.6540    6.2700   -1.3490 c3        1 MOL     -0.277612
     24 H8         -2.0440    3.8120    0.1120 hn        1 MOL      0.345406
     25 H9         -3.4350    6.4250   -0.2070 h1        1 MOL     -0.056465
     26 H10        -1.0370    5.4880   -1.8040 hc        1 MOL      0.055999
     27 H11        -1.9560    7.0290   -2.0750 hc        1 MOL      0.055999
     28 H12        -1.0760    6.8020   -0.5850 hc        1 MOL      0.055999
     29 N3         -4.3730    3.7800   -1.6040 n         1 MOL     -0.172796
     30 C10        -5.2700    3.1330   -2.6420 c3        1 MOL      0.059501
     31 C11        -6.3050    2.1550   -2.0350 c         1 MOL      0.304866
     32 O6         -7.1030    1.6220   -2.7950 o         1 MOL     -0.540580
     33 C12        -4.3730    2.5050   -3.7570 c3        1 MOL     -0.062638
     34 C13        -3.1760    1.6050   -3.2380 c         1 MOL      0.627758
     35 O7         -3.2280    0.7750   -2.2790 o         1 MOL     -0.662892
     36 O8         -2.0630    1.8340   -3.7280 o         1 MOL     -0.662892
     37 H13        -4.0830    3.2460   -0.8010 hn        1 MOL      0.119244
     38 H14        -5.7320    3.9210   -3.2400 h1        1 MOL      0.079123
     39 H15        -3.8870    3.2780   -4.3450 hc        1 MOL      0.009716
     40 H16        -5.0770    1.8730   -4.3120 hc        1 MOL      0.009716
     41 N4         -6.4030    1.9250   -0.7300 n         1 MOL     -0.080838
     42 C14        -7.3840    1.0280   -0.1000 c3        1 MOL     -0.117328
     43 C15        -7.2950   -0.4420   -0.6030 c         1 MOL      0.431568
     44 O9         -8.2030   -1.1610   -0.3920 o         1 MOL     -0.587151
     45 H17        -5.7360    2.3720   -0.1130 hn        1 MOL      0.046614
     46 H18        -8.3890    1.3920   -0.2900 h1        1 MOL      0.092150
     47 H19        -7.2250    1.0330    0.9800 h1        1 MOL      0.092150
     48 N5         -6.2780   -0.9110   -1.3820 n         1 MOL     -0.056111
     49 C16        -6.2330   -2.2360   -1.9660 c3        1 MOL     -0.028643
     50 C17        -6.0270   -3.3830   -0.9320 c         1 MOL      0.407564
     51 O10        -5.8390   -4.5480   -1.2930 o         1 MOL     -0.501804
     52 C18        -5.1290   -2.4150   -3.1050 c3        1 MOL     -0.344131
     53 C19        -3.7170   -2.2260   -2.6060 c         1 MOL      0.678245
     54 N6         -2.7520   -2.3270   -3.4700 n         1 MOL     -0.665388
     55 O11        -3.4030   -2.0890   -1.4620 o         1 MOL     -0.510702
     56 H20        -5.5050   -0.3340   -1.6770 hn        1 MOL      0.136729
     57 H21        -7.2260   -2.4470   -2.3560 h1        1 MOL      0.095342
     58 H22        -5.3670   -1.7160   -3.9050 hc        1 MOL      0.107165
     59 H23        -5.1620   -3.4540   -3.4120 hc        1 MOL      0.107165
     60 H24        -2.8680   -2.7230   -4.3990 hn        1 MOL      0.323899
     61 H25        -1.8320   -2.2730   -3.0640 hn        1 MOL      0.323899
     62 N7         -5.9840   -3.0760    0.3610 n         1 MOL     -0.122647
     63 C20        -5.9810   -4.1060    1.4200 c3        1 MOL     -0.245878
     64 C21        -4.6820   -4.8050    1.6140 c         1 MOL      0.545678
     65 O12        -4.6310   -5.9210    2.2050 o         1 MOL     -0.580580
     66 H26        -6.1080   -2.1310    0.7080 hn        1 MOL      0.189056
     67 H27        -6.6730   -4.9130    1.2060 h1        1 MOL      0.109306
     68 H28        -6.1820   -3.6820    2.4050 h1        1 MOL      0.109306
     69 N8         -3.5570   -4.1950    1.2550 n         1 MOL     -0.275120
     70 C22        -2.2090   -4.7200    1.3290 c3        1 MOL     -0.013787
     71 C23        -1.1820   -3.5890    1.4290 c         1 MOL      0.354149
     72 O13        -1.4840   -2.4530    1.0910 o         1 MOL     -0.382036
     73 C24        -1.8780   -5.5860    0.1920 c3        1 MOL      0.427495
     74 C25        -2.6330   -6.8670    0.1550 c3        1 MOL     -0.603739
     75 O14        -2.1970   -4.9730   -1.0820 oh        1 MOL     -0.540385
     76 H29        -3.5810   -3.3090    0.7740 hn        1 MOL      0.145355
     77 H30        -2.1530   -5.3660    2.2040 h1        1 MOL      0.062529
     78 H31        -0.8140   -5.7980    0.3180 h1        1 MOL     -0.022954
     79 H32        -1.6800   -4.1640   -1.1130 ho        1 MOL      0.315261
     80 H33        -3.6850   -6.6090   -0.0100 hc        1 MOL      0.162057
     81 H34        -2.1280   -7.4200   -0.6290 hc        1 MOL      0.162057
     82 H35        -2.6250   -7.2790    1.1680 hc        1 MOL      0.162057
     83 N9         -0.0280   -3.8610    2.1380 n         1 MOL     -0.460477
     84 C26         1.0010   -2.7950    2.1720 c3        1 MOL      0.002492
     85 C27         1.8850   -2.9530    0.9080 c         1 MOL      0.507140
     86 O15         2.5240   -4.0070    0.7450 o         1 MOL     -0.616249
     87 C28         1.8730   -2.7640    3.5040 c3        1 MOL      0.209533
     88 C29         1.0180   -2.8530    4.8010 c3        1 MOL      0.228364
     89 C30         2.8410   -1.6250    3.6290 c3        1 MOL     -0.315526
     90 C31         1.8260   -3.0950    6.0350 c3        1 MOL     -0.150945
     91 H36         0.1080   -4.8130    2.4220 hn        1 MOL      0.300839
     92 H37         0.4940   -1.8260    2.2340 h1        1 MOL      0.039922
     93 H38         2.4280   -3.7060    3.5030 hc        1 MOL     -0.041852
     94 H39         0.2700   -3.6390    4.7580 hc        1 MOL     -0.077100
     95 H40         0.5020   -1.8870    4.8230 hc        1 MOL     -0.077100
     96 H41         3.2710   -1.4780    2.6370 hc        1 MOL      0.063281
     97 H42         2.4880   -0.6480    3.9560 hc        1 MOL      0.063281
     98 H43         3.6520   -1.8810    4.3200 hc        1 MOL      0.063281
     99 H44         2.2950   -4.0790    6.0060 hc        1 MOL      0.021224
    100 H45         2.6180   -2.3620    6.1940 hc        1 MOL      0.021224
    101 H46         1.1690   -2.9830    6.8940 hc        1 MOL      0.021224
    102 N10         1.8080   -2.0410   -0.0310 n         1 MOL     -0.082296
    103 C32         2.6740   -1.9500   -1.2440 c3        1 MOL      0.024156
    104 C33         4.0480   -1.3680   -0.8880 c         1 MOL      0.359453
    105 O16         4.2490   -0.7510    0.2210 o         1 MOL     -0.308096
    106 C34         1.9310   -1.0520   -2.2200 c3        1 MOL     -0.153040
    107 C35         0.4830   -1.4950   -2.5400 c         1 MOL      0.582912
    108 O17         0.2100   -1.8670   -3.7050 o         1 MOL     -0.626221
    109 O18        -0.4260   -1.4550   -1.6550 o         1 MOL     -0.626221
    110 H47         1.2530   -1.2260    0.2150 hn        1 MOL      0.012202
    111 H48         2.7650   -2.9320   -1.7040 h1        1 MOL      0.076308
    112 H49         2.5660   -0.9360   -3.1000 hc        1 MOL      0.060401
    113 H50         1.9120   -0.0430   -1.8130 hc        1 MOL      0.060401
    114 N11         5.0690   -1.7130   -1.6750 n         1 MOL     -0.634967
    115 C36         6.4380   -1.3800   -1.3830 c3        1 MOL      0.539214
    116 C37         6.7520    0.0420   -1.0180 c         1 MOL      0.231284
    117 O19         7.3000    0.2530    0.0750 o         1 MOL     -0.466987
    118 C38         7.3140   -1.9020   -2.5010 c3        1 MOL     -0.374096
    119 C39         8.8500   -1.6950   -2.2600 ca        1 MOL      0.225803
    120 C40         9.6400   -1.1870   -3.3290 ca        1 MOL     -0.197851
    121 C41         9.4580   -2.1910   -1.1200 ca        1 MOL     -0.197851
    122 C42        11.0680   -1.1190   -3.1280 ca        1 MOL     -0.141911
    123 C43        10.7610   -1.8060   -0.8300 ca        1 MOL     -0.141911
    124 C44        11.5830   -1.3380   -1.8720 ca        1 MOL     -0.056622
    125 H51         4.8720   -2.4470   -2.3490 hn        1 MOL      0.348255
    126 H52         6.7440   -1.9000   -0.4770 h1        1 MOL      0.010554
    127 H53         6.9690   -1.3610   -3.3820 hc        1 MOL      0.089200
    128 H54         7.1330   -2.9680   -2.6390 hc        1 MOL      0.089200
    129 H55         9.1990   -0.7110   -4.1940 ha        1 MOL      0.125284
    130 H56         8.8180   -2.5320   -0.3210 ha        1 MOL      0.125284
    131 H57        11.7530   -0.6040   -3.7970 ha        1 MOL      0.120855
    132 H58        11.0550   -1.7570    0.2090 ha        1 MOL      0.120855
    133 H59        12.6320   -1.1920   -1.7210 ha        1 MOL      0.080686
    134 N12         6.2430    1.1230   -1.7760 n         1 MOL     -0.093905
    135 C45         6.5320    2.5020   -1.3670 c3        1 MOL     -0.089679
    136 C46         5.7790    2.9060   -0.0190 c         1 MOL      0.345055
    137 O20         6.1490    3.9360    0.6040 o         1 MOL     -0.515697
    138 C47         6.2350    3.3290   -2.5880 c3        1 MOL     -0.037736
    139 C48         5.0750    2.4990   -3.2050 c3        1 MOL      0.140421
    140 C49         5.4070    1.0050   -2.9340 c3        1 MOL     -0.100316
    141 H60         7.6120    2.6530   -1.3120 h1        1 MOL      0.100855
    142 H61         5.9020    4.3560   -2.4310 hc        1 MOL      0.032664
    143 H62         7.0420    3.3530   -3.3250 hc        1 MOL      0.032664
    144 H63         4.1380    2.8460   -2.7770 hc        1 MOL     -0.016816
    145 H64         5.0440    2.6500   -4.2820 hc        1 MOL     -0.016816
    146 H65         4.4490    0.4980   -2.7820 h1        1 MOL      0.043209
    147 H66         5.9860    0.6140   -3.7690 h1        1 MOL      0.043209
    148 N13         4.7720    2.1380    0.4340 n         1 MOL     -0.056961
    149 C50         3.9470    2.3120    1.6780 c3        1 MOL     -0.085182
    150 C51         4.6470    1.6290    2.9080 c         1 MOL      0.408617
    151 O21         4.8330    2.2420    3.9450 o         1 MOL     -0.542326
    152 C52         2.5610    1.7070    1.4920 c3        1 MOL     -0.070051
    153 C53         1.7890    2.1680    0.3590 c3        1 MOL     -0.082257
    154 C54         0.4210    1.5520    0.3150 c         1 MOL      0.635909
    155 O22        -0.6780    2.0300   -0.1290 o         1 MOL     -0.676650
    156 O23         0.2660    0.3600    0.7620 o         1 MOL     -0.676650
    157 H67         4.6390    1.2500   -0.0310 hn        1 MOL      0.153252
    158 H68         3.8540    3.3890    1.8320 h1        1 MOL      0.114871
    159 H69         2.0010    1.7320    2.4270 hc        1 MOL      0.043577
    160 H70         2.6530    0.6460    1.2890 hc        1 MOL      0.043577
    161 H71         2.3510    1.8660   -0.5340 hc        1 MOL      0.050166
    162 H72         1.7510    3.2590    0.3360 hc        1 MOL      0.050166
    163 N14         5.3700    0.5420    2.6450 n         1 MOL      0.027231
    164 C55         6.4600    0.0480    3.5060 c3        1 MOL     -0.214076
    165 H73         7.3670    0.6170    3.3050 h1        1 MOL      0.080568
    166 H74         6.1800    0.1680    4.5520 h1        1 MOL      0.080568
    167 H75         6.6400   -1.0070    3.2960 h1        1 MOL      0.080568
    168 H76         5.1760    0.1030    1.7630 hn        1 MOL      0.024302
    169 Ca1        -2.1340   -0.0710   -0.1530 Ca        1 MOL      1.624245
    170 O24        -4.3670   -0.5810    1.2530 oh        1 MOL     -0.893884
    171 H77        -5.2670   -0.7040    1.5700 ho        1 MOL      0.433020
    172 H78        -3.9260   -0.0960    1.9470 ho        1 MOL      0.433020
    173 O25        -1.8200    0.0430    2.6070 oh        1 MOL     -0.893884
    174 H79        -0.8990   -0.0660    2.3690 ho        1 MOL      0.433020
    175 H80        -1.8180    0.0620    3.5670 ho        1 MOL      0.433020
@<TRIPOS>BOND
     1    1    2 1   
     2    1    4 1   
     3    1    5 1   
     4    1    6 1   
     5    2    3 2   
     6    2    7 1   
     7    7    8 1   
     8    7   15 1   
     9    8    9 1   
    10    8   11 1   
    11    8   16 1   
    12    9   10 2   
    13    9   19 1   
    14   11   12 1   
    15   11   17 1   
    16   11   18 1   
    17   12   13 1   
    18   12   14 1   
    19   19   20 1   
    20   19   24 1   
    21   20   21 1   
    22   20   23 1   
    23   20   25 1   
    24   21   22 2   
    25   21   29 1   
    26   23   26 1   
    27   23   27 1   
    28   23   28 1   
    29   29   30 1   
    30   29   37 1   
    31   30   31 1   
    32   30   33 1   
    33   30   38 1   
    34   31   32 2   
    35   31   41 1   
    36   33   34 1   
    37   33   39 1   
    38   33   40 1   
    39   34   35 1   
    40   34   36 1   
    41   41   42 1   
    42   41   45 1   
    43   42   43 1   
    44   42   46 1   
    45   42   47 1   
    46   43   44 2   
    47   43   48 1   
    48   48   49 1   
    49   48   56 1   
    50   49   50 1   
    51   49   52 1   
    52   49   57 1   
    53   50   51 2   
    54   50   62 1   
    55   52   53 1   
    56   52   58 1   
    57   52   59 1   
    58   53   54 1   
    59   53   55 2   
    60   54   60 1   
    61   54   61 1   
    62   62   63 1   
    63   62   66 1   
    64   63   64 1   
    65   63   67 1   
    66   63   68 1   
    67   64   65 2   
    68   64   69 1   
    69   69   70 1   
    70   69   76 1   
    71   70   71 1   
    72   70   73 1   
    73   70   77 1   
    74   71   72 2   
    75   71   83 1   
    76   73   74 1   
    77   73   75 1   
    78   73   78 1   
    79   74   80 1   
    80   74   81 1   
    81   74   82 1   
    82   75   79 1   
    83   83   84 1   
    84   83   91 1   
    85   84   85 1   
    86   84   87 1   
    87   84   92 1   
    88   85   86 2   
    89   85  102 1   
    90   87   88 1   
    91   87   89 1   
    92   87   93 1   
    93   88   90 1   
    94   88   94 1   
    95   88   95 1   
    96   89   96 1   
    97   89   97 1   
    98   89   98 1   
    99   90   99 1   
   100   90  100 1   
   101   90  101 1   
   102  102  103 1   
   103  102  110 1   
   104  103  104 1   
   105  103  106 1   
   106  103  111 1   
   107  104  105 2   
   108  104  114 1   
   109  106  107 1   
   110  106  112 1   
   111  106  113 1   
   112  107  108 1   
   113  107  109 1   
   114  114  115 1   
   115  114  125 1   
   116  115  116 1   
   117  115  118 1   
   118  115  126 1   
   119  116  117 2   
   120  116  134 1   
   121  118  119 1   
   122  118  127 1   
   123  118  128 1   
   124  119  120 ar  
   125  119  121 ar  
   126  120  122 ar  
   127  120  129 1   
   128  121  123 ar  
   129  121  130 1   
   130  122  124 ar  
   131  122  131 1   
   132  123  124 ar  
   133  123  132 1   
   134  124  133 1   
   135  134  135 1   
   136  134  140 1   
   137  135  136 1   
   138  135  138 1   
   139  135  141 1   
   140  136  137 2   
   141  136  148 1   
   142  138  139 1   
   143  138  142 1   
   144  138  143 1   
   145  139  140 1   
   146  139  144 1   
   147  139  145 1   
   148  140  146 1   
   149  140  147 1   
   150  148  149 1   
   151  148  157 1   
   152  149  150 1   
   153  149  152 1   
   154  149  158 1   
   155  150  151 2   
   156  150  163 1   
   157  152  153 1   
   158  152  159 1   
   159  152  160 1   
   160  153  154 1   
   161  153  161 1   
   162  153  162 1   
   163  154  155 1   
   164  154  156 1   
   165  163  164 1   
   166  163  168 1   
   167  164  165 1   
   168  164  166 1   
   169  164  167 1   
   170  170  171 1   
   171  170  172 1   
   172  173  174 1   
   173  173  175 1   
@<TRIPOS>SUBSTRUCTURE
     1 MOL         1 TEMP              0 ****  ****    0 ROOT
