@<TRIPOS>MOLECULE
MOL
  182   178     1     0     0
SMALL
resp


@<TRIPOS>ATOM
      1 C1         -1.5900   -2.4390    6.5290 c3        1 MOL     -0.347340
      2 C2         -1.2930   -2.2430    5.0610 c         1 MOL      0.750146
      3 O1         -2.2090   -2.1130    4.2180 o         1 MOL     -0.622821
      4 H1         -2.3950   -1.7680    6.8290 hc        1 MOL      0.088455
      5 H2         -1.8950   -3.4710    6.7040 hc        1 MOL      0.088455
      6 H3         -0.6970   -2.2200    7.1140 hc        1 MOL      0.088455
      7 N1         -0.0590   -2.4530    4.6380 n         1 MOL     -0.631115
      8 C3          0.3690   -2.2370    3.2570 c3        1 MOL      0.093711
      9 C4          0.1940   -3.5680    2.4840 c         1 MOL      0.808219
     10 O2          0.4990   -4.6420    2.9730 o         1 MOL     -0.594362
     11 C5          1.8150   -1.6890    3.2420 c3        1 MOL     -0.014552
     12 C6          2.3770   -1.4390    1.8470 c         1 MOL      0.692188
     13 O3          3.4640   -0.8090    1.8090 o         1 MOL     -0.733366
     14 O4          1.7840   -1.8650    0.8100 o         1 MOL     -0.733366
     15 H4          0.5410   -2.7050    5.4140 hn        1 MOL      0.314922
     16 H5         -0.2550   -1.4510    2.8350 h1        1 MOL      0.016560
     17 H6          2.4910   -2.4390    3.6420 hc        1 MOL      0.007322
     18 H7          1.8750   -0.7460    3.7950 hc        1 MOL      0.007322
     19 N2         -0.4190   -3.4430    1.2690 n         1 MOL     -0.556850
     20 C7         -0.8570   -4.5970    0.5540 c3        1 MOL     -0.036044
     21 C8          0.2920   -5.3050   -0.2710 c         1 MOL      0.444411
     22 O5          0.0830   -6.4120   -0.8180 o         1 MOL     -0.563908
     23 C9         -2.1280   -4.2390   -0.3170 c3        1 MOL     -0.083544
     24 C10        -3.0890   -5.3380   -0.6280 c3        1 MOL     -0.041367
     25 C11        -4.3350   -4.7910   -1.3030 c3        1 MOL     -0.337375
     26 C12        -5.3100   -5.8140   -1.8500 c3        1 MOL     -0.089718
     27 N3         -4.8030   -6.6190   -2.9990 n4        1 MOL     -0.338848
     28 H8         -0.5110   -2.5250    0.8480 hn        1 MOL      0.237128
     29 H9         -1.0970   -5.4020    1.2550 h1        1 MOL      0.096079
     30 H10        -1.7470   -3.6140   -1.1330 hc        1 MOL      0.109184
     31 H11        -2.6070   -3.4760    0.2920 hc        1 MOL      0.109184
     32 H12        -3.3020   -5.8240    0.3200 hc        1 MOL      0.061600
     33 H13        -2.5970   -6.0550   -1.2810 hc        1 MOL      0.061600
     34 H14        -4.0900   -4.0710   -2.0770 hc        1 MOL      0.183434
     35 H15        -4.8210   -4.2700   -0.4870 hc        1 MOL      0.183434
     36 H16        -6.2090   -5.2880   -2.1570 hx        1 MOL      0.147183
     37 H17        -5.5730   -6.4380   -1.0030 hx        1 MOL      0.147183
     38 H18        -4.7240   -6.0510   -3.8270 hn        1 MOL      0.324695
     39 H19        -3.8990   -7.0220   -2.8020 hn        1 MOL      0.324695
     40 H20        -5.4420   -7.3660   -3.2410 hn        1 MOL      0.324695
     41 N4          1.4260   -4.5880   -0.4690 n         1 MOL     -0.200176
     42 C13         2.6380   -5.2290   -1.0320 c3        1 MOL     -0.024223
     43 C14         3.9180   -4.9470   -0.2420 c         1 MOL      0.436683
     44 O6          4.9970   -5.2950   -0.6520 o         1 MOL     -0.504410
     45 C15         2.8620   -4.8930   -2.5290 c3        1 MOL     -0.282175
     46 C16         2.8270   -3.3920   -2.9720 c         1 MOL      0.663715
     47 O7          2.6580   -2.4860   -2.1300 o         1 MOL     -0.701840
     48 O8          3.0950   -3.0510   -4.1700 o         1 MOL     -0.701840
     49 H21         1.4390   -3.6230   -0.1850 hn        1 MOL      0.144929
     50 H22         2.4800   -6.2950   -0.9010 h1        1 MOL      0.118596
     51 H23         2.0650   -5.4560   -3.0230 hc        1 MOL      0.099549
     52 H24         3.8610   -5.2820   -2.7330 hc        1 MOL      0.099549
     53 N5          3.8000   -4.2930    0.9060 n         1 MOL     -0.178377
     54 C17         4.8590   -3.9030    1.7690 c3        1 MOL     -0.142276
     55 C18         5.7930   -2.8710    1.1040 c         1 MOL      0.541639
     56 O9          6.9540   -2.7690    1.5740 o         1 MOL     -0.612266
     57 H25         2.8650   -3.9850    1.1650 hn        1 MOL      0.131694
     58 H26         5.4750   -4.7870    1.9070 h1        1 MOL      0.095692
     59 H27         4.4110   -3.5600    2.6940 h1        1 MOL      0.095692
     60 N6          5.3780   -2.1530    0.1180 n         1 MOL     -0.136196
     61 C19         6.3800   -1.4050   -0.7410 c3        1 MOL     -0.073168
     62 C20         6.6940    0.0780   -0.1630 c         1 MOL      0.371818
     63 O10         7.3470    0.8240   -0.8670 o         1 MOL     -0.491413
     64 C21         5.7420   -1.3000   -2.1580 c3        1 MOL     -0.478742
     65 C22         4.8450   -0.1060   -2.3500 c         1 MOL      0.778235
     66 N7          4.9570    0.6060   -3.4800 n         1 MOL     -0.806146
     67 O11         4.0580    0.2930   -1.4990 o         1 MOL     -0.756322
     68 H28         4.3900   -2.2390   -0.0680 hn        1 MOL      0.087246
     69 H29         7.3200   -1.9570   -0.7990 h1        1 MOL      0.158056
     70 H30         5.1920   -2.2270   -2.3200 hc        1 MOL      0.203824
     71 H31         6.5510   -1.2500   -2.8790 hc        1 MOL      0.203824
     72 H32         5.6210    0.4000   -4.2160 hn        1 MOL      0.372132
     73 H33         4.4040    1.4510   -3.5490 hn        1 MOL      0.372132
     74 N8          6.1440    0.4060    0.9940 n         1 MOL     -0.157058
     75 C23         6.3540    1.6140    1.8090 c3        1 MOL     -0.374070
     76 C24         5.2400    2.6380    1.7670 c         1 MOL      0.697907
     77 O12         5.3380    3.7060    2.3990 o         1 MOL     -0.595972
     78 H34         5.4930   -0.2700    1.3640 hn        1 MOL      0.271291
     79 H35         7.3220    2.0280    1.5530 h1        1 MOL      0.152795
     80 H36         6.2520    1.2950    2.8430 h1        1 MOL      0.152795
     81 N9          4.2390    2.3920    0.9330 n         1 MOL     -0.734024
     82 C25         3.1680    3.3200    0.6490 c3        1 MOL      0.434678
     83 C26         1.8300    2.6440    0.7110 c         1 MOL      0.479380
     84 O13         1.7230    1.4020    0.5130 o         1 MOL     -0.692033
     85 C27         3.4920    4.0540   -0.7340 c3        1 MOL     -0.036054
     86 C28         4.7830    4.8620   -0.8010 ca        1 MOL     -0.077210
     87 C29         5.9780    4.3480   -1.3170 ca        1 MOL     -0.066943
     88 C30         4.8200    6.1240   -0.2460 ca        1 MOL     -0.066943
     89 C31         7.1790    5.0590   -1.1760 ca        1 MOL     -0.305506
     90 C32         5.9960    6.8970   -0.1350 ca        1 MOL     -0.305506
     91 C33         7.1660    6.3160   -0.6260 ca        1 MOL      0.393277
     92 O14         8.4030    7.0270   -0.6150 oh        1 MOL     -0.516463
     93 H37         4.3620    1.5780    0.3480 hn        1 MOL      0.718452
     94 H38         3.0400    4.1050    1.3910 h1        1 MOL     -0.022019
     95 H39         2.6520    4.7260   -0.9040 hc        1 MOL      0.001658
     96 H40         3.5460    3.2420   -1.4550 hc        1 MOL      0.001658
     97 H41         6.0380    3.2880   -1.4890 ha        1 MOL      0.091482
     98 H42         3.9140    6.6520    0.0160 ha        1 MOL      0.091482
     99 H43         8.1650    4.6750   -1.4120 ha        1 MOL      0.167299
    100 H44         5.9650    7.8320    0.4110 ha        1 MOL      0.167299
    101 H45         8.2490    7.9180   -0.2830 ho        1 MOL      0.350175
    102 N10         0.8060    3.4720    0.9500 n         1 MOL     -0.519003
    103 C34        -0.5900    3.0670    0.9080 c3        1 MOL     -0.003883
    104 C35        -1.5270    3.9960    0.1730 c         1 MOL      0.532693
    105 O15        -1.2320    5.2020    0.0560 o         1 MOL     -0.542159
    106 C36        -1.1320    2.6320    2.2530 c3        1 MOL     -0.070992
    107 C37        -1.2580    3.8350    3.2180 c3        1 MOL     -0.084862
    108 C38        -0.3440    1.4470    2.9110 c3        1 MOL     -0.105780
    109 C39        -2.2410    3.5130    4.3130 c3        1 MOL     -0.424168
    110 H46         0.9800    4.4330    1.1900 hn        1 MOL      0.320657
    111 H47        -0.7610    2.1690    0.3020 h1        1 MOL      0.139800
    112 H48        -2.1560    2.2800    2.0860 hc        1 MOL      0.107424
    113 H49        -1.5540    4.7300    2.6720 hc        1 MOL      0.086817
    114 H50        -0.2980    4.1050    3.6420 hc        1 MOL      0.086817
    115 H51        -0.8950    0.9540    3.7120 hc        1 MOL      0.059660
    116 H52        -0.4000    0.5810    2.2490 hc        1 MOL      0.059660
    117 H53         0.6990    1.6160    3.1820 hc        1 MOL      0.059660
    118 H54        -2.3490    4.3330    5.0330 hc        1 MOL      0.109620
    119 H55        -3.1820    3.1760    3.8720 hc        1 MOL      0.109620
    120 H56        -1.7370    2.8710    5.0320 hc        1 MOL      0.109620
    121 N11        -2.7320    3.4870   -0.1830 n         1 MOL     -0.321125
    122 C40        -3.7130    4.1520   -1.1050 c3        1 MOL      0.107912
    123 C41        -5.1380    3.9300   -0.5160 c         1 MOL      0.491555
    124 O16        -5.2550    3.2230    0.4780 o         1 MOL     -0.436129
    125 C42        -3.5130    3.4790   -2.4630 c3        1 MOL     -0.391042
    126 O17        -4.0570    2.1230   -2.4100 oh        1 MOL     -0.369880
    127 H57        -2.9940    2.5450    0.0810 hn        1 MOL      0.124265
    128 H58        -3.5770    5.2310   -1.0850 h1        1 MOL      0.082951
    129 H59        -2.4590    3.4890   -2.7370 h1        1 MOL      0.172283
    130 H60        -4.1650    4.0270   -3.1520 h1        1 MOL      0.172283
    131 H61        -4.0020    1.8160   -3.3120 ho        1 MOL      0.373283
    132 N12        -6.2230    4.4120   -1.1560 n         1 MOL     -0.504400
    133 C43        -7.5230    4.3090   -0.5690 c3        1 MOL      0.197847
    134 C44        -8.0600    2.8320   -0.7590 c         1 MOL      0.328444
    135 O18        -8.7770    2.2880    0.0290 o         1 MOL     -0.483310
    136 C45        -8.3840    5.2860   -1.3490 c3        1 MOL     -0.306597
    137 H62        -6.1510    4.8280   -2.0730 hn        1 MOL      0.304589
    138 H63        -7.4750    4.5800    0.4870 h1        1 MOL      0.090288
    139 H64        -9.3740    5.2540   -0.8720 hc        1 MOL      0.090131
    140 H65        -8.0200    6.3040   -1.2330 hc        1 MOL      0.090131
    141 H66        -8.4230    5.0180   -2.4020 hc        1 MOL      0.090131
    142 N13        -7.5270    2.0870   -1.7380 n         1 MOL     -0.126388
    143 C46        -7.7680    0.7440   -2.0660 c3        1 MOL      0.001767
    144 C47        -7.1320   -0.2980   -1.1110 c         1 MOL      0.376062
    145 O19        -7.6640   -1.3980   -0.9020 o         1 MOL     -0.529283
    146 C48        -7.2520    0.5450   -3.5050 c3        1 MOL     -0.246629
    147 H67        -7.0420    2.5430   -2.4970 hn        1 MOL      0.160687
    148 H68        -8.8490    0.6140   -2.0730 h1        1 MOL      0.091934
    149 H69        -6.1770    0.6970   -3.4160 hc        1 MOL      0.067224
    150 H70        -7.4810   -0.4390   -3.9090 hc        1 MOL      0.067224
    151 H71        -7.7100    1.2470   -4.2020 hc        1 MOL      0.067224
    152 N14        -5.9250   -0.0740   -0.6290 n         1 MOL     -0.173914
    153 C49        -5.3290   -0.8230    0.4900 c3        1 MOL     -0.017836
    154 C50        -6.0370   -0.5710    1.8160 c         1 MOL      0.611434
    155 O20        -6.3850   -1.5320    2.4510 o         1 MOL     -0.533909
    156 C51        -3.8120   -0.5170    0.5460 c3        1 MOL     -0.182934
    157 C52        -3.1590   -0.7570   -0.8560 c3        1 MOL      0.523681
    158 C53        -1.7060   -0.4060   -0.7530 c         1 MOL      0.688017
    159 O21        -1.1670    0.3670   -1.5620 o         1 MOL     -0.742848
    160 O22        -0.9500   -1.0370   -0.0390 o         1 MOL     -0.742848
    161 H72        -5.4240    0.7630   -0.8790 hn        1 MOL      0.268022
    162 H73        -5.4720   -1.8850    0.2900 h1        1 MOL      0.040479
    163 H74        -3.4270   -1.2450    1.2640 hc        1 MOL      0.045982
    164 H75        -3.6250    0.5260    0.8310 hc        1 MOL      0.045982
    165 H76        -3.6910   -0.1380   -1.5730 hc        1 MOL     -0.263785
    166 H77        -3.3580   -1.8000   -1.0980 hc        1 MOL     -0.263785
    167 N15        -6.3720    0.6960    2.1440 n         1 MOL     -0.272653
    168 C54        -7.1970    1.0440    3.3650 c3        1 MOL     -0.446188
    169 H78        -6.9620    2.0600    3.6840 h1        1 MOL      0.169409
    170 H79        -8.2570    0.9770    3.1190 h1        1 MOL      0.169409
    171 H80        -6.9650    0.3470    4.1710 h1        1 MOL      0.169409
    172 H81        -6.0550    1.4720    1.5710 hn        1 MOL      0.206054
    173 Ca1         1.2480   -0.4510   -1.2910 Ca        1 MOL      1.873374
    174 O23        -0.2750   -1.6870   -3.1590 oh        1 MOL     -0.847373
    175 H82         0.4750   -1.5870   -3.7380 ho        1 MOL      0.402331
    176 H83        -0.8190   -2.3540   -3.5750 ho        1 MOL      0.402331
    177 O24         1.4480    1.8190   -2.5850 oh        1 MOL     -0.847373
    178 H84         0.6430    2.2160   -2.9080 ho        1 MOL      0.402331
    179 H85         2.1530    2.3220   -2.9870 ho        1 MOL      0.402331
    180 O25         1.9420   -0.6290   -4.1740 oh        1 MOL     -0.847373
    181 H86         2.3960   -1.4660   -4.2900 ho        1 MOL      0.402331
    182 H87         2.2940   -0.0760   -4.8680 ho        1 MOL      0.402331
@<TRIPOS>BOND
     1    1    2 1   
     2    1    4 1   
     3    1    5 1   
     4    1    6 1   
     5    2    3 2   
     6    2    7 1   
     7    7    8 1   
     8    7   15 1   
     9    8    9 1   
    10    8   11 1   
    11    8   16 1   
    12    9   10 2   
    13    9   19 1   
    14   11   12 1   
    15   11   17 1   
    16   11   18 1   
    17   12   13 1   
    18   12   14 1   
    19   19   20 1   
    20   19   28 1   
    21   20   21 1   
    22   20   23 1   
    23   20   29 1   
    24   21   22 2   
    25   21   41 1   
    26   23   24 1   
    27   23   30 1   
    28   23   31 1   
    29   24   25 1   
    30   24   32 1   
    31   24   33 1   
    32   25   26 1   
    33   25   34 1   
    34   25   35 1   
    35   26   27 1   
    36   26   36 1   
    37   26   37 1   
    38   27   38 1   
    39   27   39 1   
    40   27   40 1   
    41   41   42 1   
    42   41   49 1   
    43   42   43 1   
    44   42   45 1   
    45   42   50 1   
    46   43   44 2   
    47   43   53 1   
    48   45   46 1   
    49   45   51 1   
    50   45   52 1   
    51   46   47 1   
    52   46   48 1   
    53   53   54 1   
    54   53   57 1   
    55   54   55 1   
    56   54   58 1   
    57   54   59 1   
    58   55   56 2   
    59   55   60 1   
    60   60   61 1   
    61   60   68 1   
    62   61   62 1   
    63   61   64 1   
    64   61   69 1   
    65   62   63 2   
    66   62   74 1   
    67   64   65 1   
    68   64   70 1   
    69   64   71 1   
    70   65   66 1   
    71   65   67 2   
    72   66   72 1   
    73   66   73 1   
    74   74   75 1   
    75   74   78 1   
    76   75   76 1   
    77   75   79 1   
    78   75   80 1   
    79   76   77 2   
    80   76   81 1   
    81   81   82 1   
    82   81   93 1   
    83   82   83 1   
    84   82   85 1   
    85   82   94 1   
    86   83   84 2   
    87   83  102 1   
    88   85   86 1   
    89   85   95 1   
    90   85   96 1   
    91   86   87 ar  
    92   86   88 ar  
    93   87   89 ar  
    94   87   97 1   
    95   88   90 ar  
    96   88   98 1   
    97   89   91 ar  
    98   89   99 1   
    99   90   91 ar  
   100   90  100 1   
   101   91   92 1   
   102   92  101 1   
   103  102  103 1   
   104  102  110 1   
   105  103  104 1   
   106  103  106 1   
   107  103  111 1   
   108  104  105 2   
   109  104  121 1   
   110  106  107 1   
   111  106  108 1   
   112  106  112 1   
   113  107  109 1   
   114  107  113 1   
   115  107  114 1   
   116  108  115 1   
   117  108  116 1   
   118  108  117 1   
   119  109  118 1   
   120  109  119 1   
   121  109  120 1   
   122  121  122 1   
   123  121  127 1   
   124  122  123 1   
   125  122  125 1   
   126  122  128 1   
   127  123  124 2   
   128  123  132 1   
   129  125  126 1   
   130  125  129 1   
   131  125  130 1   
   132  126  131 1   
   133  132  133 1   
   134  132  137 1   
   135  133  134 1   
   136  133  136 1   
   137  133  138 1   
   138  134  135 2   
   139  134  142 1   
   140  136  139 1   
   141  136  140 1   
   142  136  141 1   
   143  142  143 1   
   144  142  147 1   
   145  143  144 1   
   146  143  146 1   
   147  143  148 1   
   148  144  145 2   
   149  144  152 1   
   150  146  149 1   
   151  146  150 1   
   152  146  151 1   
   153  152  153 1   
   154  152  161 1   
   155  153  154 1   
   156  153  156 1   
   157  153  162 1   
   158  154  155 2   
   159  154  167 1   
   160  156  157 1   
   161  156  163 1   
   162  156  164 1   
   163  157  158 1   
   164  157  165 1   
   165  157  166 1   
   166  158  159 1   
   167  158  160 1   
   168  167  168 1   
   169  167  172 1   
   170  168  169 1   
   171  168  170 1   
   172  168  171 1   
   173  174  175 1   
   174  174  176 1   
   175  177  178 1   
   176  177  179 1   
   177  180  181 1   
   178  180  182 1   
@<TRIPOS>SUBSTRUCTURE
     1 MOL         1 TEMP              0 ****  ****    0 ROOT
