@<TRIPOS>MOLECULE
MOL
  189   185     1     0     0
SMALL
resp


@<TRIPOS>ATOM
      1 C1          0.0500    3.2320   -5.4950 c3        1 MOL     -0.304987
      2 C2          0.4370    2.8940   -4.0690 c         1 MOL      0.536242
      3 O1         -0.4370    3.0770   -3.2170 o         1 MOL     -0.565692
      4 H1         -0.2120    4.2880   -5.5590 hc        1 MOL      0.089494
      5 H2          0.8890    3.0250   -6.1580 hc        1 MOL      0.089494
      6 H3         -0.8070    2.6260   -5.7920 hc        1 MOL      0.089494
      7 N1          1.6620    2.5170   -3.7390 n         1 MOL     -0.447016
      8 C3          2.0530    2.0690   -2.4070 c3        1 MOL      0.285752
      9 C4          2.4260    3.1770   -1.4410 c         1 MOL      0.111830
     10 O2          3.5590    3.6610   -1.4330 o         1 MOL     -0.443953
     11 C5          3.2570    1.1770   -2.5580 c3        1 MOL     -0.182854
     12 C6          3.7570    0.4450   -1.2360 c         1 MOL      0.708189
     13 O3          3.2980    0.6810   -0.0740 o         1 MOL     -0.678296
     14 O4          4.8090   -0.3100   -1.3060 o         1 MOL     -0.678296
     15 H4          2.3320    2.2900   -4.4660 hn        1 MOL      0.293668
     16 H5          1.2630    1.4410   -1.9760 h1        1 MOL     -0.049607
     17 H6          4.0610    1.8660   -2.7980 hc        1 MOL      0.049063
     18 H7          3.1460    0.4120   -3.3210 hc        1 MOL      0.049063
     19 N2          1.4360    3.5650   -0.6300 n         1 MOL     -0.040626
     20 C7          1.4310    4.8300    0.1890 c3        1 MOL      0.064484
     21 C8          2.5640    4.7930    1.2450 c         1 MOL      0.462518
     22 O5          2.8000    5.9020    1.7440 o         1 MOL     -0.570262
     23 C9          0.0360    5.0480    0.7730 c3        1 MOL     -0.068557
     24 C10        -1.1050    5.0550   -0.1980 c3        1 MOL     -0.016404
     25 C11        -1.0600    6.3410   -1.0740 c3        1 MOL     -0.190837
     26 C12        -0.3280    6.2000   -2.3920 c3        1 MOL      0.229916
     27 N3         -0.0790    7.5320   -3.0160 n4        1 MOL     -0.495478
     28 H8          0.6140    2.9850   -0.7060 hn        1 MOL      0.242985
     29 H9          1.5560    5.7450   -0.3920 h1        1 MOL     -0.007614
     30 H10         0.0170    6.0030    1.2830 hc        1 MOL      0.040021
     31 H11        -0.0710    4.2340    1.4960 hc        1 MOL      0.040021
     32 H12        -2.0650    4.9550    0.3070 hc        1 MOL      0.060665
     33 H13        -1.0820    4.1760   -0.8420 hc        1 MOL      0.060665
     34 H14        -0.6750    7.2070   -0.5300 hc        1 MOL      0.058471
     35 H15        -2.0800    6.5850   -1.3820 hc        1 MOL      0.058471
     36 H16        -0.9250    5.5890   -3.0760 hx        1 MOL      0.060144
     37 H17         0.6160    5.6470   -2.3460 hx        1 MOL      0.060144
     38 H18        -0.9230    8.0800   -3.1030 hn        1 MOL      0.346489
     39 H19         0.5170    8.0550   -2.3970 hn        1 MOL      0.346489
     40 H20         0.3900    7.4840   -3.9210 hn        1 MOL      0.346489
     41 N4          3.1390    3.6500    1.5430 n         1 MOL     -0.306093
     42 C13         4.1660    3.6130    2.6050 c3        1 MOL      0.058801
     43 C14         5.4320    2.7920    2.2250 c         1 MOL      0.349027
     44 O6          6.3300    2.6900    3.0240 o         1 MOL     -0.517876
     45 C15         3.5690    3.1480    3.9480 c3        1 MOL     -0.254223
     46 C16         2.9210    1.7190    3.8790 c         1 MOL      0.876237
     47 O7          2.1360    1.4050    4.8240 o         1 MOL     -0.739101
     48 O8          3.1980    0.9370    2.9730 o         1 MOL     -0.739101
     49 H21         2.7410    2.8370    1.1000 hn        1 MOL      0.234636
     50 H22         4.5040    4.6150    2.8490 h1        1 MOL      0.104800
     51 H23         2.7420    3.7900    4.2590 hc        1 MOL      0.062294
     52 H24         4.3270    3.0550    4.7270 hc        1 MOL      0.062294
     53 N5          5.5520    2.3540    1.0290 n         1 MOL     -0.031081
     54 C17         6.7310    1.9050    0.2560 c3        1 MOL     -0.307824
     55 C18         7.2810    0.5540    0.7300 c         1 MOL      0.607034
     56 O9          8.4460    0.3110    0.4060 o         1 MOL     -0.610829
     57 H25         4.7190    2.3780    0.4450 hn        1 MOL      0.058883
     58 H26         7.5740    2.5940    0.2190 h1        1 MOL      0.143769
     59 H27         6.3400    1.5660   -0.7120 h1        1 MOL      0.143769
     60 N6          6.5900   -0.2160    1.4860 n         1 MOL     -0.270113
     61 C19         7.0060   -1.6040    1.8400 c3        1 MOL     -0.031678
     62 C20         7.1070   -2.6440    0.6930 c         1 MOL      0.336131
     63 O10         7.6110   -3.7560    0.9170 o         1 MOL     -0.525656
     64 C21         6.1490   -2.1100    3.0270 c3        1 MOL     -0.185203
     65 C22         4.6820   -2.1850    2.8100 c         1 MOL      0.725849
     66 O11         4.1960   -2.2980    1.6380 o         1 MOL     -0.665548
     67 O12         3.9480   -2.3250    3.8330 o         1 MOL     -0.665548
     68 H28         5.5910   -0.0860    1.3950 hn        1 MOL      0.169324
     69 H29         8.0100   -1.5570    2.2590 h1        1 MOL      0.112906
     70 H30         6.3340   -1.3520    3.7860 hc        1 MOL      0.073938
     71 H31         6.5430   -3.0440    3.4310 hc        1 MOL      0.073938
     72 N7          6.5130   -2.3210   -0.4380 n         1 MOL     -0.027422
     73 C23         6.6040   -3.1210   -1.6880 c3        1 MOL     -0.107349
     74 C24         5.3620   -3.8520   -2.0830 c         1 MOL      0.705710
     75 O13         5.3980   -4.8830   -2.7090 o         1 MOL     -0.594202
     76 H32         5.9250   -1.5040   -0.4360 hn        1 MOL      0.173239
     77 H33         7.4560   -3.7990   -1.5820 h1        1 MOL      0.052416
     78 H34         6.8320   -2.3780   -2.4470 h1        1 MOL      0.052416
     79 N8          4.1820   -3.3650   -1.6130 n         1 MOL     -0.453998
     80 C25         2.9510   -4.0540   -1.5830 c3        1 MOL     -0.117235
     81 C26         1.8050   -3.0560   -1.5260 c         1 MOL      0.752713
     82 O14         1.7290   -2.1610   -0.6950 o         1 MOL     -0.670458
     83 C27         2.7740   -4.9280   -0.3400 c3        1 MOL      0.461422
     84 C28         2.8900   -6.3110   -0.9330 c3        1 MOL     -0.387585
     85 O15         3.7670   -4.8440    0.6260 oh        1 MOL     -0.615744
     86 H35         4.2770   -2.4560   -1.1800 hn        1 MOL      0.186078
     87 H36         2.8510   -4.6270   -2.5000 h1        1 MOL      0.082619
     88 H37         1.7790   -4.7570    0.0720 h1        1 MOL     -0.014512
     89 H38         3.8720   -3.9470    0.9590 ho        1 MOL      0.444267
     90 H39         2.7510   -7.0760   -0.1640 hc        1 MOL      0.087949
     91 H40         2.0840   -6.4290   -1.6620 hc        1 MOL      0.087949
     92 H41         3.8340   -6.3950   -1.4610 hc        1 MOL      0.087949
     93 N9          0.7250   -3.3300   -2.2990 n         1 MOL     -0.708116
     94 C29        -0.4880   -2.4570   -2.4030 c3        1 MOL      0.046578
     95 C30        -1.7210   -3.1730   -1.8710 c         1 MOL      0.424525
     96 O16        -2.0730   -4.3170   -2.2430 o         1 MOL     -0.563615
     97 C31        -0.9060   -2.0750   -3.8830 c3        1 MOL      0.297121
     98 C32         0.2040   -1.8590   -4.8620 c3        1 MOL      0.072168
     99 C33        -1.7560   -0.7260   -3.8300 c3        1 MOL     -1.004816
    100 C34        -0.2310   -1.6960   -6.2950 c3        1 MOL     -0.014844
    101 H42         0.7190   -4.2250   -2.7650 hn        1 MOL      0.357265
    102 H43        -0.3930   -1.6140   -1.7160 h1        1 MOL      0.128090
    103 H44        -1.5360   -2.8640   -4.3060 hc        1 MOL     -0.012022
    104 H45         0.8540   -2.7290   -4.8260 hc        1 MOL     -0.029234
    105 H46         0.6990   -0.9210   -4.6140 hc        1 MOL     -0.029234
    106 H47        -2.2160   -0.5810   -4.8080 hc        1 MOL      0.264808
    107 H48        -2.4250   -0.7790   -2.9790 hc        1 MOL      0.264808
    108 H49        -1.0380    0.0800   -3.6880 hc        1 MOL      0.264808
    109 H50        -0.6870   -2.6080   -6.6930 hc        1 MOL     -0.001746
    110 H51        -1.0120   -0.9390   -6.3960 hc        1 MOL     -0.001746
    111 H52         0.5940   -1.4350   -6.9530 hc        1 MOL     -0.001746
    112 N10        -2.3660   -2.5390   -0.9330 n         1 MOL      0.065136
    113 C35        -3.6160   -3.0100   -0.2830 c3        1 MOL     -0.110329
    114 C36        -4.8630   -2.3790   -0.8910 c         1 MOL      0.347668
    115 O17        -4.7130   -1.5160   -1.8010 o         1 MOL     -0.375089
    116 C37        -3.5800   -2.6430    1.1870 c3        1 MOL      0.187006
    117 C38        -2.5430   -3.2780    2.0830 c3        1 MOL     -0.584840
    118 O18        -3.4180   -1.1860    1.1850 oh        1 MOL     -0.510959
    119 H53        -2.0940   -1.5940   -0.7290 hn        1 MOL     -0.011369
    120 H54        -3.6250   -4.0880   -0.4040 h1        1 MOL      0.093222
    121 H55        -4.5640   -2.8680    1.5850 h1        1 MOL      0.044077
    122 H56        -2.4620   -1.0550    1.1980 ho        1 MOL      0.324007
    123 H57        -2.7090   -4.3570    2.0340 hc        1 MOL      0.181245
    124 H58        -1.5570   -3.0360    1.6990 hc        1 MOL      0.181245
    125 H59        -2.7130   -2.9440    3.1030 hc        1 MOL      0.181245
    126 N11        -6.0320   -2.7010   -0.3850 n         1 MOL     -0.251111
    127 C39        -7.3190   -2.1890   -0.8300 c3        1 MOL     -0.085349
    128 C40        -7.4870   -0.7650   -0.3610 c         1 MOL      0.392294
    129 O19        -7.9850    0.0490   -1.1500 o         1 MOL     -0.470135
    130 C41        -8.5100   -3.0150   -0.2170 c3        1 MOL      0.313517
    131 C42        -8.5800   -4.4970   -0.5110 c3        1 MOL     -0.540991
    132 O20        -8.4280   -3.1170    1.1230 oh        1 MOL     -0.664338
    133 H60        -6.0870   -3.2830    0.4310 hn        1 MOL      0.247833
    134 H61        -7.3590   -2.1820   -1.9110 h1        1 MOL      0.144967
    135 H62        -9.4150   -2.4760   -0.4980 h1        1 MOL      0.038167
    136 H63        -9.2380   -3.4750    1.4820 ho        1 MOL      0.432203
    137 H64        -9.3660   -4.9530    0.0930 hc        1 MOL      0.153197
    138 H65        -8.6010   -4.6190   -1.5950 hc        1 MOL      0.153197
    139 H66        -7.6440   -4.8610   -0.0790 hc        1 MOL      0.153197
    140 N12        -6.9500   -0.4610    0.8600 n         1 MOL     -0.385855
    141 C43        -6.6700    0.8530    1.3170 c3        1 MOL      0.383003
    142 C44        -5.8970    1.7140    0.3880 c         1 MOL      0.117985
    143 O21        -6.1460    2.8740    0.1420 o         1 MOL     -0.495681
    144 C45        -6.1810    0.9040    2.7360 c3        1 MOL     -0.391199
    145 C46        -7.2880    0.7160    3.7790 c3        1 MOL      0.002695
    146 C47        -6.7320    0.5810    5.2760 c3        1 MOL      0.061238
    147 C48        -7.8530    0.5560    6.3650 c3        1 MOL     -0.329183
    148 N13        -8.8760   -0.4370    6.1240 n4        1 MOL     -0.134985
    149 H67        -6.5410   -1.2060    1.4010 hn        1 MOL      0.261852
    150 H68        -7.6130    1.3920    1.4560 h1        1 MOL      0.011648
    151 H69        -5.7080    1.8930    2.7880 hc        1 MOL      0.128160
    152 H70        -5.4180    0.1260    2.8520 hc        1 MOL      0.128160
    153 H71        -7.9400   -0.0710    3.4000 hc        1 MOL      0.029071
    154 H72        -7.9950    1.5520    3.7670 hc        1 MOL      0.029071
    155 H73        -6.0400    1.3760    5.5610 hc        1 MOL      0.044341
    156 H74        -6.1570   -0.3350    5.3720 hc        1 MOL      0.044341
    157 H75        -8.2300    1.5830    6.3580 hx        1 MOL      0.196253
    158 H76        -7.2540    0.2300    7.2190 hx        1 MOL      0.196253
    159 H77        -9.5770   -0.2580    6.8240 hn        1 MOL      0.262123
    160 H78        -9.3320   -0.5370    5.2270 hn        1 MOL      0.262123
    161 H79        -8.6560   -1.4020    6.3450 hn        1 MOL      0.262123
    162 N14        -4.7760    1.2220   -0.1070 n         1 MOL      0.258629
    163 C49        -3.7850    1.9540   -0.8810 c3        1 MOL     -0.086680
    164 C50        -4.3040    2.2010   -2.2860 c         1 MOL      0.418322
    165 O22        -4.2190    3.2830   -2.8770 o         1 MOL     -0.546006
    166 C51        -2.4580    1.2770   -0.6600 c3        1 MOL     -0.019232
    167 C52        -1.8710    1.5170    0.7490 c3        1 MOL      0.133423
    168 C53        -0.5560    0.7660    0.9770 c         1 MOL      0.703187
    169 O23         0.4750    1.3570    1.2400 o         1 MOL     -0.760343
    170 O24        -0.5320   -0.5260    0.9640 o         1 MOL     -0.760343
    171 H80        -4.5540    0.2730    0.1290 hn        1 MOL     -0.018612
    172 H81        -3.7540    2.9750   -0.4850 h1        1 MOL      0.054252
    173 H82        -1.8130    1.6630   -1.4550 hc        1 MOL      0.020673
    174 H83        -2.5440    0.2080   -0.8330 hc        1 MOL      0.020673
    175 H84        -2.7310    1.3230    1.3960 hc        1 MOL     -0.073044
    176 H85        -1.6840    2.5630    0.9520 hc        1 MOL     -0.073044
    177 N15        -4.8210    1.1290   -2.8820 n         1 MOL     -0.094844
    178 C54        -5.5230    1.1920   -4.2020 c3        1 MOL     -0.201167
    179 H86        -5.8700    2.2090   -4.3800 h1        1 MOL      0.083786
    180 H87        -4.8340    0.8990   -4.9950 h1        1 MOL      0.083786
    181 H88        -6.3760    0.5140   -4.1930 h1        1 MOL      0.083786
    182 H89        -4.9390    0.2320   -2.4350 hn        1 MOL      0.140383
    183 Ca1         2.0460   -0.7740    1.5110 Ca        1 MOL      1.779398
    184 O25         0.9430   -0.6840    3.9110 oh        1 MOL     -0.897097
    185 O26         1.7750   -3.4370    2.5350 oh        1 MOL     -0.897097
    186 H90         0.1370   -0.7600    4.4150 ho        1 MOL      0.402987
    187 H91         2.3300   -3.1650    3.2590 ho        1 MOL      0.402987
    188 H92         1.3870    0.0780    4.3010 ho        1 MOL      0.402987
    189 H93         1.3880   -4.2630    2.8210 ho        1 MOL      0.402987
@<TRIPOS>BOND
     1    1    2 1   
     2    1    4 1   
     3    1    5 1   
     4    1    6 1   
     5    2    3 2   
     6    2    7 1   
     7    7    8 1   
     8    7   15 1   
     9    8    9 1   
    10    8   11 1   
    11    8   16 1   
    12    9   10 2   
    13    9   19 1   
    14   11   12 1   
    15   11   17 1   
    16   11   18 1   
    17   12   13 1   
    18   12   14 1   
    19   19   20 1   
    20   19   28 1   
    21   20   21 1   
    22   20   23 1   
    23   20   29 1   
    24   21   22 2   
    25   21   41 1   
    26   23   24 1   
    27   23   30 1   
    28   23   31 1   
    29   24   25 1   
    30   24   32 1   
    31   24   33 1   
    32   25   26 1   
    33   25   34 1   
    34   25   35 1   
    35   26   27 1   
    36   26   36 1   
    37   26   37 1   
    38   27   38 1   
    39   27   39 1   
    40   27   40 1   
    41   41   42 1   
    42   41   49 1   
    43   42   43 1   
    44   42   45 1   
    45   42   50 1   
    46   43   44 2   
    47   43   53 1   
    48   45   46 1   
    49   45   51 1   
    50   45   52 1   
    51   46   47 1   
    52   46   48 1   
    53   53   54 1   
    54   53   57 1   
    55   54   55 1   
    56   54   58 1   
    57   54   59 1   
    58   55   56 2   
    59   55   60 1   
    60   60   61 1   
    61   60   68 1   
    62   61   62 1   
    63   61   64 1   
    64   61   69 1   
    65   62   63 2   
    66   62   72 1   
    67   64   65 1   
    68   64   70 1   
    69   64   71 1   
    70   65   66 1   
    71   65   67 1   
    72   72   73 1   
    73   72   76 1   
    74   73   74 1   
    75   73   77 1   
    76   73   78 1   
    77   74   75 2   
    78   74   79 1   
    79   79   80 1   
    80   79   86 1   
    81   80   81 1   
    82   80   83 1   
    83   80   87 1   
    84   81   82 2   
    85   81   93 1   
    86   83   84 1   
    87   83   85 1   
    88   83   88 1   
    89   84   90 1   
    90   84   91 1   
    91   84   92 1   
    92   85   89 1   
    93   93   94 1   
    94   93  101 1   
    95   94   95 1   
    96   94   97 1   
    97   94  102 1   
    98   95   96 2   
    99   95  112 1   
   100   97   98 1   
   101   97   99 1   
   102   97  103 1   
   103   98  100 1   
   104   98  104 1   
   105   98  105 1   
   106   99  106 1   
   107   99  107 1   
   108   99  108 1   
   109  100  109 1   
   110  100  110 1   
   111  100  111 1   
   112  112  113 1   
   113  112  119 1   
   114  113  114 1   
   115  113  116 1   
   116  113  120 1   
   117  114  115 2   
   118  114  126 1   
   119  116  117 1   
   120  116  118 1   
   121  116  121 1   
   122  117  123 1   
   123  117  124 1   
   124  117  125 1   
   125  118  122 1   
   126  126  127 1   
   127  126  133 1   
   128  127  128 1   
   129  127  130 1   
   130  127  134 1   
   131  128  129 2   
   132  128  140 1   
   133  130  131 1   
   134  130  132 1   
   135  130  135 1   
   136  131  137 1   
   137  131  138 1   
   138  131  139 1   
   139  132  136 1   
   140  140  141 1   
   141  140  149 1   
   142  141  142 1   
   143  141  144 1   
   144  141  150 1   
   145  142  143 2   
   146  142  162 1   
   147  144  145 1   
   148  144  151 1   
   149  144  152 1   
   150  145  146 1   
   151  145  153 1   
   152  145  154 1   
   153  146  147 1   
   154  146  155 1   
   155  146  156 1   
   156  147  148 1   
   157  147  157 1   
   158  147  158 1   
   159  148  159 1   
   160  148  160 1   
   161  148  161 1   
   162  162  163 1   
   163  162  171 1   
   164  163  164 1   
   165  163  166 1   
   166  163  172 1   
   167  164  165 2   
   168  164  177 1   
   169  166  167 1   
   170  166  173 1   
   171  166  174 1   
   172  167  168 1   
   173  167  175 1   
   174  167  176 1   
   175  168  169 1   
   176  168  170 1   
   177  177  178 1   
   178  177  182 1   
   179  178  179 1   
   180  178  180 1   
   181  178  181 1   
   182  184  186 1   
   183  184  188 1   
   184  185  187 1   
   185  185  189 1   
@<TRIPOS>SUBSTRUCTURE
     1 MOL         1 TEMP              0 ****  ****    0 ROOT
