@<TRIPOS>MOLECULE
MOL
  175   173     1     0     0
SMALL
resp


@<TRIPOS>ATOM
      1 C1         -0.1370   -3.6230    5.7490 c3        1 MOL     -0.369095
      2 C2          0.4980   -3.9710    4.3840 c         1 MOL      0.715665
      3 O1         -0.2730   -4.3950    3.5160 o         1 MOL     -0.568068
      4 H1         -1.0320   -4.2270    5.8970 hc        1 MOL      0.085147
      5 H2          0.5770   -3.8300    6.5460 hc        1 MOL      0.085147
      6 H3         -0.4050   -2.5660    5.7660 hc        1 MOL      0.085147
      7 N1          1.7470   -3.7150    4.1990 n         1 MOL     -0.593258
      8 C3          2.2820   -3.4870    2.8540 c3        1 MOL      0.113637
      9 C4          2.3200   -4.7780    1.9270 c         1 MOL      0.563978
     10 O2          2.6930   -5.8900    2.2610 o         1 MOL     -0.564394
     11 C5          3.7090   -2.9230    3.0240 c3        1 MOL     -0.399954
     12 C6          4.2820   -2.3760    1.7200 c         1 MOL      0.817506
     13 O3          3.5550   -2.0520    0.7840 o         1 MOL     -0.652335
     14 O4          5.4940   -2.1710    1.7900 o         1 MOL     -0.652335
     15 H4          2.3320   -3.3120    4.9200 hn        1 MOL      0.325533
     16 H5          1.6270   -2.7440    2.3990 h1        1 MOL      0.055189
     17 H6          4.3110   -3.7440    3.4260 hc        1 MOL      0.088453
     18 H7          3.6390   -2.1100    3.7520 hc        1 MOL      0.088453
     19 N2          2.1100   -4.5980    0.5890 n         1 MOL     -0.488449
     20 C7          2.2480   -5.5020   -0.5290 c3        1 MOL      0.520561
     21 C8          3.3960   -5.1030   -1.4520 c         1 MOL      0.221070
     22 O5          3.6660   -5.8300   -2.4810 o         1 MOL     -0.566307
     23 C9          0.8480   -5.5480   -1.2240 c3        1 MOL     -0.386748
     24 H8          1.7620   -3.6960    0.2750 hn        1 MOL      0.251014
     25 H9          2.4480   -6.5260   -0.1900 h1        1 MOL     -0.022999
     26 H10         1.0220   -6.3490   -1.9400 hc        1 MOL      0.088697
     27 H11         0.0720   -5.6130   -0.4650 hc        1 MOL      0.088697
     28 H12         0.6940   -4.6500   -1.8210 hc        1 MOL      0.088697
     29 N3          3.9870   -3.9260   -1.4490 n         1 MOL     -0.203626
     30 C10         4.8190   -3.3860   -2.5530 c3        1 MOL      0.176427
     31 C11         6.0970   -2.6580   -2.2170 c         1 MOL      0.325166
     32 O6          6.9650   -2.6370   -3.0710 o         1 MOL     -0.527326
     33 C12         3.8870   -2.5580   -3.3880 c3        1 MOL     -0.301483
     34 C13         3.2510   -1.4280   -2.6680 c         1 MOL      0.874259
     35 O7          2.2350   -0.9310   -3.1910 o         1 MOL     -0.747539
     36 O8          3.8300   -0.8250   -1.7430 o         1 MOL     -0.747539
     37 H13         3.7530   -3.2620   -0.7260 hn        1 MOL      0.143907
     38 H14         5.2210   -4.2280   -3.1170 h1        1 MOL      0.072708
     39 H15         3.1500   -3.2930   -3.7310 hc        1 MOL      0.073604
     40 H16         4.4070   -2.2030   -4.2850 hc        1 MOL      0.073604
     41 N4          6.2430   -2.0290   -1.0190 n         1 MOL     -0.009272
     42 C14         7.4410   -1.3190   -0.6280 c3        1 MOL     -0.370616
     43 C15         7.5040    0.1090   -1.1150 c         1 MOL      0.501499
     44 O9          8.6260    0.6680   -1.1700 o         1 MOL     -0.585854
     45 H17         5.4320   -1.9140   -0.4190 hn        1 MOL     -0.073816
     46 H18         8.3220   -1.7460   -1.1040 h1        1 MOL      0.155857
     47 H19         7.5150   -1.3450    0.4590 h1        1 MOL      0.155857
     48 N5          6.3630    0.6620   -1.5510 n         1 MOL     -0.226863
     49 C16         6.2890    2.0220   -2.1030 c3        1 MOL     -0.111675
     50 C17         6.4240    3.1560   -1.0930 c         1 MOL      0.568295
     51 O10         6.8630    4.2320   -1.4530 o         1 MOL     -0.572667
     52 C18         4.9750    2.1190   -3.0160 c3        1 MOL      0.032575
     53 C19         3.5800    2.2680   -2.4170 c         1 MOL      0.613518
     54 N6          2.5380    2.4730   -3.2490 n         1 MOL     -0.667810
     55 O11         3.4390    2.3020   -1.1810 o         1 MOL     -0.630480
     56 H20         5.5150    0.1200   -1.4130 hn        1 MOL      0.293822
     57 H21         7.1240    2.2050   -2.7800 h1        1 MOL      0.097365
     58 H22         4.9070    1.2090   -3.6230 hc        1 MOL     -0.002231
     59 H23         5.0990    2.9090   -3.7480 hc        1 MOL     -0.002231
     60 H24         2.7730    2.4980   -4.2350 hn        1 MOL      0.333883
     61 H25         1.6740    2.2070   -2.8040 hn        1 MOL      0.333883
     62 N7          5.9740    2.9460    0.1290 n         1 MOL     -0.387340
     63 C20         5.9980    3.9310    1.2390 c3        1 MOL     -0.018894
     64 C21         4.6630    4.5190    1.6060 c         1 MOL      0.558866
     65 O12         4.7880    5.2700    2.5680 o         1 MOL     -0.619685
     66 H26         5.4440    2.1120    0.3140 hn        1 MOL      0.210504
     67 H27         6.7170    4.7310    1.0760 h1        1 MOL      0.070869
     68 H28         6.3480    3.4080    2.1350 h1        1 MOL      0.070869
     69 N8          3.5580    4.2580    0.9450 n         1 MOL     -0.300016
     70 C22         2.1960    4.7950    1.1850 c3        1 MOL     -0.123783
     71 C23         1.2310    3.6360    1.4360 c         1 MOL      0.589941
     72 O13         1.4360    2.5260    0.9470 o         1 MOL     -0.658643
     73 C24         1.6050    5.6680    0.0380 c3        1 MOL      0.517120
     74 C25         2.2480    7.0360    0.1450 c3        1 MOL     -0.525298
     75 O14         2.0650    5.0810   -1.1950 oh        1 MOL     -0.615551
     76 H29         3.5750    3.6680    0.1220 hn        1 MOL      0.284998
     77 H30         2.1300    5.3730    2.1140 h1        1 MOL      0.064213
     78 H31         0.5160    5.7210    0.0210 h1        1 MOL     -0.025093
     79 H32         1.3650    4.4600   -1.4140 ho        1 MOL      0.370811
     80 H33         3.3190    6.8920   -0.0130 hc        1 MOL      0.132855
     81 H34         1.8160    7.7020   -0.6040 hc        1 MOL      0.132855
     82 H35         2.0110    7.4320    1.1330 hc        1 MOL      0.132855
     83 N9          0.1290    3.9440    2.1130 n         1 MOL     -0.415566
     84 C26        -1.0200    3.0280    2.0410 c3        1 MOL     -0.187895
     85 C27        -1.6890    3.2260    0.6630 c         1 MOL      0.493132
     86 O15        -2.0370    4.3380    0.2580 o         1 MOL     -0.569646
     87 C28        -1.9380    3.3650    3.1840 c3        1 MOL      0.239440
     88 C29        -1.3220    3.0580    4.5500 c3        1 MOL     -0.022281
     89 C30        -3.4090    2.8320    3.0490 c3        1 MOL     -0.329543
     90 C31        -2.1570    3.6210    5.6630 c3        1 MOL     -0.044314
     91 H36         0.0960    4.8910    2.4460 hn        1 MOL      0.270445
     92 H37        -0.6940    1.9860    2.0630 h1        1 MOL      0.123153
     93 H38        -2.0220    4.4550    3.1470 hc        1 MOL     -0.004811
     94 H39        -0.3430    3.5400    4.5430 hc        1 MOL      0.002209
     95 H40        -1.2200    1.9910    4.7190 hc        1 MOL      0.002209
     96 H41        -3.5200    1.7970    3.3700 hc        1 MOL      0.075843
     97 H42        -4.0610    3.4780    3.6400 hc        1 MOL      0.075843
     98 H43        -3.6500    2.8500    1.9920 hc        1 MOL      0.075843
     99 H44        -2.1910    4.7110    5.6160 hc        1 MOL      0.005907
    100 H45        -3.2100    3.3230    5.6140 hc        1 MOL      0.005907
    101 H46        -1.8210    3.2700    6.6370 hc        1 MOL      0.005907
    102 N10        -1.8890    2.0580    0.0060 n         1 MOL     -0.133108
    103 C32        -2.7510    1.8090   -1.1830 c3        1 MOL      0.086121
    104 C33        -4.0930    1.3420   -0.8220 c         1 MOL      0.482689
    105 O16        -4.3360    0.5860    0.1210 o         1 MOL     -0.318284
    106 C34        -1.8400    0.8700   -2.0430 c3        1 MOL     -0.555272
    107 C35        -0.4850    1.4880   -2.3890 c         1 MOL      0.876921
    108 O17         0.5290    1.1200   -1.7350 o         1 MOL     -0.685826
    109 O18        -0.4270    2.4190   -3.1880 o         1 MOL     -0.685826
    110 H47        -1.5990    1.2350    0.5270 hn        1 MOL      0.157735
    111 H48        -2.8980    2.7580   -1.7000 h1        1 MOL      0.055255
    112 H49        -2.4020    0.8710   -2.9770 hc        1 MOL      0.127792
    113 H50        -1.8000   -0.1370   -1.6420 hc        1 MOL      0.127792
    114 N11        -5.0830    1.6230   -1.6960 n         1 MOL     -0.611941
    115 C36        -6.4820    1.1930   -1.5010 c3        1 MOL      0.139159
    116 C37        -6.7100   -0.2990   -1.1600 c         1 MOL      0.584123
    117 O19        -7.3570   -0.5870   -0.1410 o         1 MOL     -0.533461
    118 C38        -7.3280    1.6480   -2.6970 c3        1 MOL     -0.051327
    119 C39        -8.7550    1.5100   -2.2980 ca        1 MOL      0.039377
    120 C40        -9.3810    2.4610   -1.3990 ca        1 MOL     -0.207473
    121 C41        -9.5290    0.3740   -2.7240 ca        1 MOL     -0.207473
    122 C42       -10.7060    2.2420   -0.9980 ca        1 MOL     -0.037774
    123 C43       -10.8690    0.2270   -2.2990 ca        1 MOL     -0.037774
    124 C44       -11.4520    1.1840   -1.4830 ca        1 MOL     -0.169301
    125 H51        -4.8530    2.1020   -2.5600 hn        1 MOL      0.334392
    126 H52        -6.8800    1.7400   -0.6420 h1        1 MOL      0.079842
    127 H53        -7.0790    1.0570   -3.5850 hc        1 MOL      0.038259
    128 H54        -7.1310    2.6930   -2.9500 hc        1 MOL      0.038259
    129 H55        -8.9070    3.4100   -1.1770 ha        1 MOL      0.126027
    130 H56        -9.0950   -0.3330   -3.4200 ha        1 MOL      0.126027
    131 H57       -11.0940    2.9000   -0.2330 ha        1 MOL      0.091684
    132 H58       -11.5720   -0.4570   -2.7650 ha        1 MOL      0.091684
    133 H59       -12.4550    1.1480   -1.1080 ha        1 MOL      0.111587
    134 N12        -6.1730   -1.2500   -1.9080 n         1 MOL     -0.163285
    135 C45        -6.3810   -2.6150   -1.5200 c3        1 MOL     -0.114988
    136 C46        -5.6640   -2.9970   -0.2110 c         1 MOL      0.407521
    137 O20        -6.1740   -3.9510    0.4860 o         1 MOL     -0.538288
    138 C47        -5.7440   -3.4540   -2.6960 c3        1 MOL     -0.098841
    139 C48        -4.5700   -2.5250   -3.0240 c3        1 MOL      0.036589
    140 C49        -5.2370   -1.1380   -3.0570 c3        1 MOL     -0.079071
    141 H60        -7.4570   -2.6940   -1.3860 h1        1 MOL      0.099685
    142 H61        -5.5050   -4.4890   -2.4660 hc        1 MOL      0.060161
    143 H62        -6.4120   -3.4910   -3.5590 hc        1 MOL      0.060161
    144 H63        -3.8090   -2.6970   -2.2590 hc        1 MOL      0.016756
    145 H64        -4.2400   -2.7020   -4.0510 hc        1 MOL      0.016756
    146 H65        -4.4370   -0.3930   -3.0850 h1        1 MOL      0.052557
    147 H66        -5.7900   -1.0950   -3.9980 h1        1 MOL      0.052557
    148 N13        -4.6470   -2.2410    0.2440 n         1 MOL     -0.103615
    149 C50        -4.0130   -2.3920    1.6030 c3        1 MOL     -0.411973
    150 C51        -4.7830   -1.7010    2.6360 c         1 MOL      0.631387
    151 O21        -4.6200   -1.9430    3.8020 o         1 MOL     -0.566323
    152 C52        -2.6470   -1.7040    1.4940 c3        1 MOL      0.170441
    153 C53        -1.7220   -2.2660    0.3760 c3        1 MOL     -0.041462
    154 C54        -0.3740   -1.5830    0.2290 c         1 MOL      0.564667
    155 O22         0.5870   -2.1400   -0.3450 o         1 MOL     -0.695053
    156 O23        -0.2890   -0.4530    0.8270 o         1 MOL     -0.695053
    157 H67        -4.4490   -1.3720   -0.2430 hn        1 MOL      0.187623
    158 H68        -3.8880   -3.4450    1.8300 h1        1 MOL      0.191511
    159 H69        -2.1730   -1.9700    2.4420 hc        1 MOL     -0.001822
    160 H70        -2.7170   -0.6150    1.5200 hc        1 MOL     -0.001822
    161 H71        -2.2190   -2.1740   -0.5900 hc        1 MOL      0.041104
    162 H72        -1.6650   -3.3330    0.6200 hc        1 MOL      0.041104
    163 N14        -5.5960   -0.6700    2.2540 n         1 MOL     -0.142919
    164 C55        -6.5350    0.0490    3.1240 c3        1 MOL     -0.239275
    165 H73        -7.3510   -0.6170    3.4050 h1        1 MOL      0.088696
    166 H74        -6.0150    0.3850    4.0210 h1        1 MOL      0.088696
    167 H75        -6.9380    0.9110    2.5920 h1        1 MOL      0.088696
    168 H76        -5.4890   -0.2490    1.3440 hn        1 MOL      0.048258
    169 Ca1         2.1050    0.1600   -0.0130 Ca        1 MOL      1.751444
    170 O24         1.8430   -0.0080    2.8240 oh        1 MOL     -0.793611
    171 H77         2.3030   -0.3130    3.6120 ho        1 MOL      0.394169
    172 H78         0.9550   -0.3340    2.9250 ho        1 MOL      0.394169
    173 O25         4.7570    0.2310    0.7930 oh        1 MOL     -0.793611
    174 H79         4.8810   -0.7160    0.6880 ho        1 MOL      0.394169
    175 H80         5.4100    0.4860    1.4450 ho        1 MOL      0.394169
@<TRIPOS>BOND
     1    1    2 1   
     2    1    4 1   
     3    1    5 1   
     4    1    6 1   
     5    2    3 2   
     6    2    7 1   
     7    7    8 1   
     8    7   15 1   
     9    8    9 1   
    10    8   11 1   
    11    8   16 1   
    12    9   10 2   
    13    9   19 1   
    14   11   12 1   
    15   11   17 1   
    16   11   18 1   
    17   12   13 1   
    18   12   14 1   
    19   19   20 1   
    20   19   24 1   
    21   20   21 1   
    22   20   23 1   
    23   20   25 1   
    24   21   22 2   
    25   21   29 1   
    26   23   26 1   
    27   23   27 1   
    28   23   28 1   
    29   29   30 1   
    30   29   37 1   
    31   30   31 1   
    32   30   33 1   
    33   30   38 1   
    34   31   32 2   
    35   31   41 1   
    36   33   34 1   
    37   33   39 1   
    38   33   40 1   
    39   34   35 1   
    40   34   36 1   
    41   41   42 1   
    42   41   45 1   
    43   42   43 1   
    44   42   46 1   
    45   42   47 1   
    46   43   44 2   
    47   43   48 1   
    48   48   49 1   
    49   48   56 1   
    50   49   50 1   
    51   49   52 1   
    52   49   57 1   
    53   50   51 2   
    54   50   62 1   
    55   52   53 1   
    56   52   58 1   
    57   52   59 1   
    58   53   54 1   
    59   53   55 2   
    60   54   60 1   
    61   54   61 1   
    62   62   63 1   
    63   62   66 1   
    64   63   64 1   
    65   63   67 1   
    66   63   68 1   
    67   64   65 2   
    68   64   69 1   
    69   69   70 1   
    70   69   76 1   
    71   70   71 1   
    72   70   73 1   
    73   70   77 1   
    74   71   72 2   
    75   71   83 1   
    76   73   74 1   
    77   73   75 1   
    78   73   78 1   
    79   74   80 1   
    80   74   81 1   
    81   74   82 1   
    82   75   79 1   
    83   83   84 1   
    84   83   91 1   
    85   84   85 1   
    86   84   87 1   
    87   84   92 1   
    88   85   86 2   
    89   85  102 1   
    90   87   88 1   
    91   87   89 1   
    92   87   93 1   
    93   88   90 1   
    94   88   94 1   
    95   88   95 1   
    96   89   96 1   
    97   89   97 1   
    98   89   98 1   
    99   90   99 1   
   100   90  100 1   
   101   90  101 1   
   102  102  103 1   
   103  102  110 1   
   104  103  104 1   
   105  103  106 1   
   106  103  111 1   
   107  104  105 2   
   108  104  114 1   
   109  106  107 1   
   110  106  112 1   
   111  106  113 1   
   112  107  108 1   
   113  107  109 1   
   114  114  115 1   
   115  114  125 1   
   116  115  116 1   
   117  115  118 1   
   118  115  126 1   
   119  116  117 2   
   120  116  134 1   
   121  118  119 1   
   122  118  127 1   
   123  118  128 1   
   124  119  120 ar  
   125  119  121 ar  
   126  120  122 ar  
   127  120  129 1   
   128  121  123 ar  
   129  121  130 1   
   130  122  124 ar  
   131  122  131 1   
   132  123  124 ar  
   133  123  132 1   
   134  124  133 1   
   135  134  135 1   
   136  134  140 1   
   137  135  136 1   
   138  135  138 1   
   139  135  141 1   
   140  136  137 2   
   141  136  148 1   
   142  138  139 1   
   143  138  142 1   
   144  138  143 1   
   145  139  140 1   
   146  139  144 1   
   147  139  145 1   
   148  140  146 1   
   149  140  147 1   
   150  148  149 1   
   151  148  157 1   
   152  149  150 1   
   153  149  152 1   
   154  149  158 1   
   155  150  151 2   
   156  150  163 1   
   157  152  153 1   
   158  152  159 1   
   159  152  160 1   
   160  153  154 1   
   161  153  161 1   
   162  153  162 1   
   163  154  155 1   
   164  154  156 1   
   165  163  164 1   
   166  163  168 1   
   167  164  165 1   
   168  164  166 1   
   169  164  167 1   
   170  170  171 1   
   171  170  172 1   
   172  173  174 1   
   173  173  175 1   
@<TRIPOS>SUBSTRUCTURE
     1 MOL         1 TEMP              0 ****  ****    0 ROOT
