@<TRIPOS>MOLECULE
MOL
  175   173     1     0     0
SMALL
resp


@<TRIPOS>ATOM
      1 C1         -0.1430    4.8770    5.1060 c3        1 MOL     -0.428077
      2 C2         -0.7510    4.5560    3.7540 c         1 MOL      0.720800
      3 O1         -0.0520    4.7350    2.7450 o         1 MOL     -0.570453
      4 H1         -0.9400    5.0360    5.8330 hc        1 MOL      0.099128
      5 H2          0.4840    4.0460    5.4310 hc        1 MOL      0.099128
      6 H3          0.4620    5.7800    5.0280 hc        1 MOL      0.099128
      7 N1         -1.9580    4.0670    3.7520 n         1 MOL     -0.609796
      8 C3         -2.5810    3.7060    2.4630 c3        1 MOL      0.216004
      9 C4         -2.8090    4.8470    1.4920 c         1 MOL      0.536741
     10 O2         -3.1610    5.9460    1.8520 o         1 MOL     -0.597503
     11 C5         -3.9400    2.9770    2.7780 c3        1 MOL     -0.536865
     12 C6         -4.5230    2.1700    1.6270 c         1 MOL      0.982720
     13 O3         -5.6830    1.7230    1.8190 o         1 MOL     -0.711064
     14 O4         -3.8810    2.0330    0.5530 o         1 MOL     -0.711064
     15 H4         -2.4920    3.9190    4.6030 hn        1 MOL      0.336126
     16 H5         -1.8760    3.0090    2.0070 h1        1 MOL      0.095048
     17 H6         -4.5760    3.7530    3.2020 hc        1 MOL      0.103266
     18 H7         -3.6130    2.2830    3.5480 hc        1 MOL      0.103266
     19 N2         -2.5900    4.5260    0.2500 n         1 MOL     -0.281313
     20 C7         -2.7290    5.3240   -0.9610 c3        1 MOL      0.193977
     21 C8         -3.7070    4.8540   -2.0440 c         1 MOL      0.277446
     22 O5         -3.8450    5.5270   -3.0800 o         1 MOL     -0.544119
     23 C9         -1.2240    5.3400   -1.4240 c3        1 MOL     -0.231110
     24 H8         -2.1750    3.6050    0.1470 hn        1 MOL      0.163400
     25 H9         -2.9690    6.2940   -0.5400 h1        1 MOL      0.026204
     26 H10        -0.6010    5.6030   -0.5690 hc        1 MOL      0.068793
     27 H11        -0.9610    4.3790   -1.8470 hc        1 MOL      0.068793
     28 H12        -1.0260    6.0430   -2.2330 hc        1 MOL      0.068793
     29 N3         -4.2760    3.6610   -1.9520 n         1 MOL     -0.023416
     30 C10        -5.1540    3.0450   -2.9260 c3        1 MOL     -0.016897
     31 C11        -6.3830    2.2280   -2.5050 c         1 MOL      0.346379
     32 O6         -7.2330    1.8530   -3.3330 o         1 MOL     -0.508605
     33 C12        -4.2800    2.1700   -3.8670 c3        1 MOL     -0.180101
     34 C13        -3.4260    1.0810   -3.1730 c         1 MOL      0.698194
     35 O7         -2.4270    0.6600   -3.7250 o         1 MOL     -0.661249
     36 O8         -3.8450    0.6980   -2.0210 o         1 MOL     -0.661249
     37 H13        -4.1660    3.1820   -1.0630 hn        1 MOL      0.076329
     38 H14        -5.6470    3.7840   -3.5540 h1        1 MOL      0.078350
     39 H15        -3.6110    2.9030   -4.3140 hc        1 MOL      0.049837
     40 H16        -4.8760    1.6550   -4.6240 hc        1 MOL      0.049837
     41 N4         -6.3490    1.7890   -1.2650 n         1 MOL     -0.169792
     42 C14        -7.3510    0.8660   -0.7620 c3        1 MOL     -0.072231
     43 C15        -7.2670   -0.5170   -1.4460 c         1 MOL      0.320051
     44 O9         -8.2460   -1.1940   -1.8110 o         1 MOL     -0.576403
     45 H17        -5.4680    1.9660   -0.8110 hn        1 MOL      0.054962
     46 H18        -8.3190    1.3370   -0.9180 h1        1 MOL      0.083053
     47 H19        -7.2980    0.7010    0.3120 h1        1 MOL      0.083053
     48 N5         -6.0390   -1.0370   -1.6550 n         1 MOL      0.022532
     49 C16        -5.7940   -2.3950   -2.2010 c3        1 MOL      0.065014
     50 C17        -5.6650   -3.5330   -1.1340 c         1 MOL      0.462834
     51 O10        -5.4880   -4.6780   -1.5040 o         1 MOL     -0.520180
     52 C18        -4.6560   -2.2910   -3.2270 c3        1 MOL     -0.294237
     53 C19        -3.2330   -2.3990   -2.5970 c         1 MOL      0.711334
     54 N6         -2.2670   -2.7090   -3.4200 n         1 MOL     -0.673164
     55 O11        -3.1010   -2.2000   -1.3830 o         1 MOL     -0.695194
     56 H20        -5.2040   -0.5400   -1.4000 hn        1 MOL      0.169989
     57 H21        -6.7200   -2.6210   -2.7340 h1        1 MOL      0.082234
     58 H22        -4.7950   -1.3980   -3.8320 hc        1 MOL      0.065981
     59 H23        -4.6800   -3.2000   -3.8200 hc        1 MOL      0.065981
     60 H24        -2.4820   -2.7570   -4.4070 hn        1 MOL      0.344630
     61 H25        -1.3230   -2.4970   -3.1390 hn        1 MOL      0.344630
     62 N7         -5.8200   -3.2250    0.1890 n         1 MOL     -0.470752
     63 C20        -5.9660   -4.2670    1.2940 c3        1 MOL      0.052545
     64 C21        -4.5920   -4.6970    1.8700 c         1 MOL      0.329677
     65 O12        -4.4470   -5.5400    2.7660 o         1 MOL     -0.563629
     66 H26        -5.9690   -2.2650    0.4510 hn        1 MOL      0.241423
     67 H27        -6.5250   -5.1820    1.0990 h1        1 MOL      0.072111
     68 H28        -6.6220   -3.9520    2.1090 h1        1 MOL      0.072111
     69 N8         -3.5290   -4.2110    1.2520 n         1 MOL     -0.159096
     70 C22        -2.0790   -4.6120    1.5620 c3        1 MOL     -0.108864
     71 C23        -1.3010   -3.3010    1.7180 c         1 MOL      0.467903
     72 O13        -1.7230   -2.2660    1.2000 o         1 MOL     -0.547205
     73 C24        -1.4160   -5.4730    0.4250 c3        1 MOL      0.492711
     74 C25        -2.0030   -6.9170    0.5730 c3        1 MOL     -0.607004
     75 O14        -1.6560   -4.9540   -0.8750 oh        1 MOL     -0.587218
     76 H29        -3.6700   -3.6000    0.4630 hn        1 MOL      0.277758
     77 H30        -2.0450   -5.2590    2.4400 h1        1 MOL      0.096605
     78 H31        -0.3370   -5.4170    0.5910 h1        1 MOL     -0.035140
     79 H32        -1.2460   -4.1010   -0.9950 ho        1 MOL      0.359582
     80 H33        -1.9710   -7.2610    1.6130 hc        1 MOL      0.161398
     81 H34        -3.0580   -6.9140    0.3200 hc        1 MOL      0.161398
     82 H35        -1.4470   -7.5700   -0.0950 hc        1 MOL      0.161398
     83 N9         -0.2490   -3.3850    2.4950 n         1 MOL     -0.424449
     84 C26         0.8790   -2.4990    2.4270 c3        1 MOL     -0.044275
     85 C27         1.6130   -2.8880    1.1210 c         1 MOL      0.552179
     86 O15         2.0120   -4.0400    0.9060 o         1 MOL     -0.561471
     87 C28         1.7800   -2.6520    3.6670 c3        1 MOL      0.078981
     88 C29         0.9820   -2.5220    5.0260 c3        1 MOL      0.104573
     89 C30         3.0140   -1.6980    3.5910 c3        1 MOL     -0.151563
     90 C31         1.8790   -2.7830    6.2860 c3        1 MOL     -0.166399
     91 H36        -0.0280   -4.2810    2.9140 hn        1 MOL      0.259318
     92 H37         0.6430   -1.4350    2.4680 h1        1 MOL      0.094551
     93 H38         2.1000   -3.6940    3.6370 hc        1 MOL     -0.018137
     94 H39         0.0490   -3.0920    5.1130 hc        1 MOL     -0.006807
     95 H40         0.6350   -1.4930    5.1040 hc        1 MOL     -0.006807
     96 H41         3.5350   -1.6070    2.6350 hc        1 MOL      0.023222
     97 H42         2.7060   -0.7540    4.0340 hc        1 MOL      0.023222
     98 H43         3.7750   -2.0310    4.2920 hc        1 MOL      0.023222
     99 H44         2.2100   -3.7990    6.4760 hc        1 MOL      0.034146
    100 H45         2.7280   -2.1250    6.4580 hc        1 MOL      0.034146
    101 H46         1.1860   -2.4570    7.0580 hc        1 MOL      0.034146
    102 N10         1.8310   -1.9000    0.1990 n         1 MOL     -0.338163
    103 C32         2.7800   -1.8350   -0.9160 c3        1 MOL      0.279874
    104 C33         4.1940   -1.3880   -0.5440 c         1 MOL      0.278686
    105 O16         4.4090   -0.7550    0.4810 o         1 MOL     -0.193540
    106 C34         2.2290   -0.9170   -2.0600 c3        1 MOL     -0.470637
    107 C35         0.7810   -1.2680   -2.3670 c         1 MOL      0.862827
    108 O17         0.5620   -2.0800   -3.3180 o         1 MOL     -0.712002
    109 O18        -0.1370   -0.8270   -1.6820 o         1 MOL     -0.712002
    110 H47         1.4380   -1.0030    0.4330 hn        1 MOL      0.203553
    111 H48         2.8270   -2.8350   -1.3450 h1        1 MOL      0.030348
    112 H49         2.7840   -1.1410   -2.9730 hc        1 MOL      0.109197
    113 H50         2.2960    0.1050   -1.7030 hc        1 MOL      0.109197
    114 N11         5.2740   -1.6180   -1.3740 n         1 MOL     -0.624152
    115 C36         6.6790   -1.2500   -1.1030 c3        1 MOL      0.547394
    116 C37         7.0040    0.2140   -0.9260 c         1 MOL      0.147314
    117 O19         7.7170    0.5440    0.0640 o         1 MOL     -0.491333
    118 C38         7.4150   -1.9510   -2.2400 c3        1 MOL     -0.388577
    119 C39         8.8970   -1.6810   -2.3490 ca        1 MOL      0.163726
    120 C40         9.4390   -0.9070   -3.4050 ca        1 MOL     -0.182135
    121 C41         9.6820   -2.2450   -1.3230 ca        1 MOL     -0.182135
    122 C42        10.8610   -0.8170   -3.5040 ca        1 MOL     -0.105243
    123 C43        11.0770   -2.1010   -1.3490 ca        1 MOL     -0.105243
    124 C44        11.6290   -1.4320   -2.4840 ca        1 MOL     -0.125031
    125 H51         5.0980   -2.0110   -2.2900 hn        1 MOL      0.318391
    126 H52         6.9360   -1.7700   -0.1750 h1        1 MOL      0.007342
    127 H53         6.9050   -1.7090   -3.1730 hc        1 MOL      0.094916
    128 H54         7.3420   -3.0020   -1.9760 hc        1 MOL      0.094916
    129 H55         8.7760   -0.4260   -4.1200 ha        1 MOL      0.129081
    130 H56         9.2070   -2.9110   -0.6170 ha        1 MOL      0.129081
    131 H57        11.2270   -0.2770   -4.3620 ha        1 MOL      0.119432
    132 H58        11.7110   -2.4630   -0.5520 ha        1 MOL      0.119432
    133 H59        12.7040   -1.5020   -2.5780 ha        1 MOL      0.091609
    134 N12         6.4420    1.1090   -1.6750 n         1 MOL      0.069756
    135 C45         6.4260    2.5820   -1.2950 c3        1 MOL     -0.062519
    136 C46         5.5680    2.9170   -0.0570 c         1 MOL      0.287187
    137 O20         5.8940    3.9060    0.6010 o         1 MOL     -0.488800
    138 C47         5.9670    3.3150   -2.5690 c3        1 MOL      0.015929
    139 C48         6.0140    2.3920   -3.6910 c3        1 MOL     -0.079586
    140 C49         5.9010    1.0200   -2.9950 c3        1 MOL     -0.075732
    141 H60         7.3830    3.0230   -1.0120 h1        1 MOL      0.112411
    142 H61         4.9550    3.7020   -2.4810 hc        1 MOL      0.032851
    143 H62         6.5770    4.1800   -2.8150 hc        1 MOL      0.032851
    144 H63         5.1550    2.5220   -4.3500 hc        1 MOL      0.040733
    145 H64         6.9790    2.4660   -4.1820 hc        1 MOL      0.040733
    146 H65         4.8350    0.8140   -2.8780 h1        1 MOL      0.054112
    147 H66         6.2270    0.2740   -3.7170 h1        1 MOL      0.054112
    148 N13         4.6470    2.0570    0.5000 n         1 MOL     -0.006951
    149 C50         3.8710    2.3680    1.7360 c3        1 MOL     -0.057227
    150 C51         4.6610    1.8790    2.9100 c         1 MOL      0.490850
    151 O21         4.8510    2.4960    3.9250 o         1 MOL     -0.570801
    152 C52         2.4520    1.7640    1.7760 c3        1 MOL     -0.046006
    153 C53         1.5320    2.2920    0.6900 c3        1 MOL     -0.034854
    154 C54         0.1660    1.6720    0.7890 c         1 MOL      0.640109
    155 O22        -0.7150    2.0090   -0.0520 o         1 MOL     -0.736899
    156 O23        -0.1100    0.6900    1.5300 o         1 MOL     -0.736899
    157 H67         4.5170    1.1250    0.1410 hn        1 MOL     -0.010795
    158 H68         3.8300    3.4390    1.9290 h1        1 MOL      0.089539
    159 H69         1.9800    1.9010    2.7370 hc        1 MOL      0.037904
    160 H70         2.6250    0.6970    1.6820 hc        1 MOL      0.037904
    161 H71         1.9630    2.0040   -0.2670 hc        1 MOL      0.040027
    162 H72         1.5450    3.3730    0.6590 hc        1 MOL      0.040027
    163 N14         5.2610    0.6540    2.8200 n         1 MOL     -0.011339
    164 C55         6.3450    0.2790    3.7470 c3        1 MOL     -0.232240
    165 H73         7.3080    0.4820    3.2800 h1        1 MOL      0.080329
    166 H74         6.2570    0.8600    4.6650 h1        1 MOL      0.080329
    167 H75         6.2710   -0.7840    3.9810 h1        1 MOL      0.080329
    168 H76         5.1530    0.1400    1.9530 hn        1 MOL      0.023135
    169 Ca1        -2.3300    0.0250    0.0300 Ca        1 MOL      1.744977
    170 O24        -2.4120    0.2180    2.7920 oh        1 MOL     -0.819762
    171 H77        -1.4650    0.0710    2.7070 ho        1 MOL      0.387131
    172 H78        -2.5180    0.6350    3.6390 ho        1 MOL      0.387131
    173 O25        -4.6600   -0.8090    1.1470 oh        1 MOL     -0.819762
    174 H79        -4.8000   -1.3680    1.9100 ho        1 MOL      0.387131
    175 H80        -5.2740   -0.0800    1.2720 ho        1 MOL      0.387131
@<TRIPOS>BOND
     1    1    2 1   
     2    1    4 1   
     3    1    5 1   
     4    1    6 1   
     5    2    3 2   
     6    2    7 1   
     7    7    8 1   
     8    7   15 1   
     9    8    9 1   
    10    8   11 1   
    11    8   16 1   
    12    9   10 2   
    13    9   19 1   
    14   11   12 1   
    15   11   17 1   
    16   11   18 1   
    17   12   13 1   
    18   12   14 1   
    19   19   20 1   
    20   19   24 1   
    21   20   21 1   
    22   20   23 1   
    23   20   25 1   
    24   21   22 2   
    25   21   29 1   
    26   23   26 1   
    27   23   27 1   
    28   23   28 1   
    29   29   30 1   
    30   29   37 1   
    31   30   31 1   
    32   30   33 1   
    33   30   38 1   
    34   31   32 2   
    35   31   41 1   
    36   33   34 1   
    37   33   39 1   
    38   33   40 1   
    39   34   35 1   
    40   34   36 1   
    41   41   42 1   
    42   41   45 1   
    43   42   43 1   
    44   42   46 1   
    45   42   47 1   
    46   43   44 2   
    47   43   48 1   
    48   48   49 1   
    49   48   56 1   
    50   49   50 1   
    51   49   52 1   
    52   49   57 1   
    53   50   51 2   
    54   50   62 1   
    55   52   53 1   
    56   52   58 1   
    57   52   59 1   
    58   53   54 1   
    59   53   55 2   
    60   54   60 1   
    61   54   61 1   
    62   62   63 1   
    63   62   66 1   
    64   63   64 1   
    65   63   67 1   
    66   63   68 1   
    67   64   65 2   
    68   64   69 1   
    69   69   70 1   
    70   69   76 1   
    71   70   71 1   
    72   70   73 1   
    73   70   77 1   
    74   71   72 2   
    75   71   83 1   
    76   73   74 1   
    77   73   75 1   
    78   73   78 1   
    79   74   80 1   
    80   74   81 1   
    81   74   82 1   
    82   75   79 1   
    83   83   84 1   
    84   83   91 1   
    85   84   85 1   
    86   84   87 1   
    87   84   92 1   
    88   85   86 2   
    89   85  102 1   
    90   87   88 1   
    91   87   89 1   
    92   87   93 1   
    93   88   90 1   
    94   88   94 1   
    95   88   95 1   
    96   89   96 1   
    97   89   97 1   
    98   89   98 1   
    99   90   99 1   
   100   90  100 1   
   101   90  101 1   
   102  102  103 1   
   103  102  110 1   
   104  103  104 1   
   105  103  106 1   
   106  103  111 1   
   107  104  105 2   
   108  104  114 1   
   109  106  107 1   
   110  106  112 1   
   111  106  113 1   
   112  107  108 1   
   113  107  109 1   
   114  114  115 1   
   115  114  125 1   
   116  115  116 1   
   117  115  118 1   
   118  115  126 1   
   119  116  117 2   
   120  116  134 1   
   121  118  119 1   
   122  118  127 1   
   123  118  128 1   
   124  119  120 ar  
   125  119  121 ar  
   126  120  122 ar  
   127  120  129 1   
   128  121  123 ar  
   129  121  130 1   
   130  122  124 ar  
   131  122  131 1   
   132  123  124 ar  
   133  123  132 1   
   134  124  133 1   
   135  134  135 1   
   136  134  140 1   
   137  135  136 1   
   138  135  138 1   
   139  135  141 1   
   140  136  137 2   
   141  136  148 1   
   142  138  139 1   
   143  138  142 1   
   144  138  143 1   
   145  139  140 1   
   146  139  144 1   
   147  139  145 1   
   148  140  146 1   
   149  140  147 1   
   150  148  149 1   
   151  148  157 1   
   152  149  150 1   
   153  149  152 1   
   154  149  158 1   
   155  150  151 2   
   156  150  163 1   
   157  152  153 1   
   158  152  159 1   
   159  152  160 1   
   160  153  154 1   
   161  153  161 1   
   162  153  162 1   
   163  154  155 1   
   164  154  156 1   
   165  163  164 1   
   166  163  168 1   
   167  164  165 1   
   168  164  166 1   
   169  164  167 1   
   170  170  171 1   
   171  170  172 1   
   172  173  174 1   
   173  173  175 1   
@<TRIPOS>SUBSTRUCTURE
     1 MOL         1 TEMP              0 ****  ****    0 ROOT
