@<TRIPOS>MOLECULE
MOL
  175   173     1     0     0
SMALL
resp


@<TRIPOS>ATOM
      1 C1          0.7850    3.5590    5.6090 c3        1 MOL     -0.448487
      2 C2          0.1640    3.8440    4.2130 c         1 MOL      0.698562
      3 O1          0.8760    4.1350    3.2820 o         1 MOL     -0.551202
      4 H1          1.4010    4.4060    5.9130 hc        1 MOL      0.108828
      5 H2         -0.0110    3.4100    6.3380 hc        1 MOL      0.108828
      6 H3          1.4030    2.6630    5.5560 hc        1 MOL      0.108828
      7 N1         -1.1270    3.5800    4.0660 n         1 MOL     -0.582398
      8 C3         -1.8240    3.4010    2.7440 c3        1 MOL     -0.033305
      9 C4         -1.8990    4.6690    1.8880 c         1 MOL      0.665550
     10 O2         -2.1930    5.7440    2.4380 o         1 MOL     -0.561604
     11 C5         -3.2540    3.0220    3.1870 c3        1 MOL     -0.250369
     12 C6         -3.9800    2.8010    1.9030 c         1 MOL      0.646462
     13 O3         -3.4060    2.1810    0.9690 o         1 MOL     -0.642066
     14 O4         -5.2080    3.0380    1.8050 o         1 MOL     -0.642066
     15 H4         -1.5920    3.2450    4.8960 hn        1 MOL      0.313884
     16 H5         -1.3500    2.5910    2.2000 h1        1 MOL      0.119217
     17 H6         -3.8070    3.8160    3.6990 hc        1 MOL      0.073088
     18 H7         -3.3530    2.1260    3.8110 hc        1 MOL      0.073088
     19 N2         -1.6970    4.5550    0.5360 n         1 MOL     -0.571066
     20 C7         -2.0100    5.5810   -0.5470 c3        1 MOL      0.339532
     21 C8         -3.2510    5.2120   -1.4530 c         1 MOL      0.482150
     22 O5         -3.4880    5.9890   -2.3590 o         1 MOL     -0.556608
     23 C9         -0.7480    5.7040   -1.3740 c3        1 MOL     -0.331279
     24 H8         -1.4280    3.6790    0.1020 hn        1 MOL      0.336962
     25 H9         -2.2710    6.4990   -0.0140 h1        1 MOL     -0.002109
     26 H10        -0.8730    6.3550   -2.2390 hc        1 MOL      0.085431
     27 H11         0.0460    6.0910   -0.7350 hc        1 MOL      0.085431
     28 H12        -0.5230    4.6980   -1.7500 hc        1 MOL      0.085431
     29 N3         -3.9720    4.0570   -1.3390 n         1 MOL     -0.499902
     30 C10        -4.7000    3.4880   -2.4310 c3        1 MOL      0.239342
     31 C11        -5.9670    2.6460   -2.1340 c         1 MOL      0.302502
     32 O6         -6.7690    2.3950   -3.0850 o         1 MOL     -0.562696
     33 C12        -3.7470    2.7250   -3.3950 c3        1 MOL     -0.404411
     34 C13        -3.0780    1.5370   -2.7080 c         1 MOL      0.797223
     35 O7         -1.8730    1.3130   -2.9230 o         1 MOL     -0.721284
     36 O8         -3.6880    0.9300   -1.8160 o         1 MOL     -0.721284
     37 H13        -3.6850    3.3760   -0.6500 hn        1 MOL      0.246731
     38 H14        -5.0260    4.3320   -3.0390 h1        1 MOL      0.073741
     39 H15        -2.9270    3.4240   -3.5770 hc        1 MOL      0.100046
     40 H16        -4.3360    2.4280   -4.2660 hc        1 MOL      0.100046
     41 N4         -6.2670    2.3330   -0.9120 n         1 MOL     -0.089547
     42 C14        -7.5540    1.6410   -0.6260 c3        1 MOL     -0.326052
     43 C15        -7.7020    0.1840   -1.1170 c         1 MOL      0.529325
     44 O9         -8.7200   -0.4490   -0.9760 o         1 MOL     -0.581114
     45 H17        -5.5330    2.3950   -0.2160 hn        1 MOL      0.120623
     46 H18        -8.3540    2.3180   -0.9400 h1        1 MOL      0.146894
     47 H19        -7.5820    1.6030    0.4620 h1        1 MOL      0.146894
     48 N5         -6.5950   -0.3560   -1.6600 n         1 MOL     -0.240889
     49 C16        -6.5520   -1.7650   -2.1560 c3        1 MOL     -0.080389
     50 C17        -6.5370   -2.8850   -1.0500 c         1 MOL      0.493359
     51 O10        -6.8430   -4.0240   -1.3130 o         1 MOL     -0.544321
     52 C18        -5.3660   -1.9430   -3.1490 c3        1 MOL     -0.075921
     53 C19        -3.8770   -1.9840   -2.6040 c         1 MOL      0.586550
     54 N6         -2.8860   -1.9610   -3.4800 n         1 MOL     -0.637907
     55 O11        -3.5390   -2.1750   -1.4000 o         1 MOL     -0.550422
     56 H20        -5.7950    0.2610   -1.6580 hn        1 MOL      0.285021
     57 H21        -7.4840   -1.9610   -2.6770 h1        1 MOL      0.122509
     58 H22        -5.4140   -0.9960   -3.6880 hc        1 MOL      0.024974
     59 H23        -5.4860   -2.7690   -3.8430 hc        1 MOL      0.024974
     60 H24        -3.0340   -1.4630   -4.3470 hn        1 MOL      0.328285
     61 H25        -1.9370   -2.0850   -3.1570 hn        1 MOL      0.328285
     62 N7         -6.4040   -2.4990    0.2030 n         1 MOL     -0.149347
     63 C20        -6.5130   -3.3650    1.3420 c3        1 MOL     -0.371416
     64 C21        -5.2690   -4.1570    1.6690 c         1 MOL      0.540834
     65 O12        -5.3410   -5.2290    2.2880 o         1 MOL     -0.598541
     66 H26        -5.9740   -1.6000    0.3570 hn        1 MOL      0.167701
     67 H27        -7.3360   -4.0240    1.0950 h1        1 MOL      0.154643
     68 H28        -6.7680   -2.7100    2.1710 h1        1 MOL      0.154643
     69 N8         -4.1300   -3.8550    1.1370 n         1 MOL     -0.029276
     70 C22        -2.8440   -4.5000    1.1570 c3        1 MOL     -0.364517
     71 C23        -1.6560   -3.5140    1.3220 c         1 MOL      0.654346
     72 O13        -1.8220   -2.3620    0.9190 o         1 MOL     -0.638841
     73 C24        -2.5090   -5.4220   -0.0490 c3        1 MOL      0.597108
     74 C25        -3.4720   -6.6140   -0.0690 c3        1 MOL     -0.333669
     75 O14        -2.5440   -4.7390   -1.2330 oh        1 MOL     -0.647049
     76 H29        -4.0380   -2.9950    0.6300 hn        1 MOL      0.070242
     77 H30        -2.7670   -5.1010    2.0620 h1        1 MOL      0.093474
     78 H31        -1.5530   -5.9270    0.1250 h1        1 MOL     -0.042120
     79 H32        -2.9710   -3.8960   -1.0510 ho        1 MOL      0.403669
     80 H33        -4.4640   -6.1850   -0.2180 hc        1 MOL      0.069948
     81 H34        -3.2460   -7.4060   -0.7810 hc        1 MOL      0.069948
     82 H35        -3.3450   -7.1690    0.8620 hc        1 MOL      0.069948
     83 N9         -0.5400   -3.8950    1.9300 n         1 MOL     -0.555921
     84 C26         0.7290   -3.0710    1.9700 c3        1 MOL      0.017840
     85 C27         1.4250   -3.2580    0.5850 c         1 MOL      0.487779
     86 O15         1.6630   -4.4190    0.1570 o         1 MOL     -0.573859
     87 C28         1.7080   -3.5000    3.0970 c3        1 MOL      0.128270
     88 C29         0.9650   -3.6300    4.4350 c3        1 MOL      0.142918
     89 C30         2.8240   -2.4450    3.2030 c3        1 MOL     -0.235330
     90 C31         1.8850   -4.1920    5.5620 c3        1 MOL     -0.195128
     91 H36        -0.5080   -4.8820    2.1450 hn        1 MOL      0.296899
     92 H37         0.4100   -2.0380    2.0870 h1        1 MOL      0.103229
     93 H38         2.2030   -4.4200    2.8010 hc        1 MOL     -0.006511
     94 H39         0.1080   -4.2990    4.3280 hc        1 MOL     -0.034044
     95 H40         0.5690   -2.6520    4.6740 hc        1 MOL     -0.034044
     96 H41         2.2280   -1.5410    3.3730 hc        1 MOL      0.050439
     97 H42         3.4930   -2.6260    4.0470 hc        1 MOL      0.050439
     98 H43         3.3940   -2.2280    2.3040 hc        1 MOL      0.050439
     99 H44         1.3590   -4.3480    6.5060 hc        1 MOL      0.039457
    100 H45         2.2740   -5.1770    5.2890 hc        1 MOL      0.039457
    101 H46         2.6530   -3.4510    5.8060 hc        1 MOL      0.039457
    102 N10         1.9020   -2.1130    0.0410 n         1 MOL     -0.043345
    103 C32         2.6940   -2.0820   -1.1820 c3        1 MOL     -0.040325
    104 C33         4.0960   -1.5020   -0.8950 c         1 MOL      0.329854
    105 O16         4.3920   -0.9610    0.1430 o         1 MOL     -0.330085
    106 C34         1.9770   -1.1450   -2.1760 c3        1 MOL     -0.292408
    107 C35         0.5970   -1.5940   -2.6150 c         1 MOL      0.768475
    108 O17        -0.3700   -1.2430   -1.9010 o         1 MOL     -0.684737
    109 O18         0.4340   -2.1670   -3.6970 o         1 MOL     -0.684737
    110 H47         1.7180   -1.2250    0.4860 hn        1 MOL     -0.015546
    111 H48         2.6500   -3.0770   -1.6150 h1        1 MOL      0.092199
    112 H49         2.6510   -1.0940   -3.0330 hc        1 MOL      0.074754
    113 H50         2.0630   -0.0920   -1.9000 hc        1 MOL      0.074754
    114 N11         5.0350   -1.7420   -1.7630 n         1 MOL     -0.393040
    115 C36         6.4740   -1.5160   -1.5430 c3        1 MOL      0.190705
    116 C37         6.9200   -0.1290   -0.9380 c         1 MOL      0.392120
    117 O19         7.6690   -0.1130    0.0140 o         1 MOL     -0.447353
    118 C38         7.2970   -1.8040   -2.7760 c3        1 MOL     -0.100780
    119 C39         8.7370   -1.5470   -2.6510 ca        1 MOL      0.115141
    120 C40         9.4910   -2.2900   -1.7060 ca        1 MOL     -0.249779
    121 C41         9.3390   -0.4980   -3.3490 ca        1 MOL     -0.249779
    122 C42        10.8820   -1.9960   -1.4650 ca        1 MOL     -0.027635
    123 C43        10.6460   -0.1650   -3.0720 ca        1 MOL     -0.027635
    124 C44        11.4350   -0.8910   -2.1390 ca        1 MOL     -0.167776
    125 H51         4.7890   -2.2790   -2.5910 hn        1 MOL      0.280836
    126 H52         6.7670   -2.2840   -0.8280 h1        1 MOL      0.047794
    127 H53         6.9480   -1.0800   -3.5100 hc        1 MOL      0.035151
    128 H54         7.0280   -2.8180   -3.0730 hc        1 MOL      0.035151
    129 H55         9.0170   -3.1140   -1.1890 ha        1 MOL      0.145407
    130 H56         8.7820    0.0290   -4.1030 ha        1 MOL      0.145407
    131 H57        11.4860   -2.6340   -0.8390 ha        1 MOL      0.093168
    132 H58        11.1320    0.5890   -3.6750 ha        1 MOL      0.093168
    133 H59        12.4450   -0.5280   -2.0250 ha        1 MOL      0.109533
    134 N12         6.4300    1.1130   -1.4150 n         1 MOL     -0.004754
    135 C45         6.6400    2.4440   -0.8900 c3        1 MOL     -0.029400
    136 C46         5.9580    2.5640    0.4220 c         1 MOL      0.466467
    137 O20         6.4590    3.2130    1.3100 o         1 MOL     -0.538359
    138 C47         6.2640    3.4710   -1.9220 c3        1 MOL     -0.176100
    139 C48         5.1830    2.7710   -2.6490 c3        1 MOL      0.030674
    140 C49         5.7800    1.3150   -2.6770 c3        1 MOL      0.008289
    141 H60         7.7240    2.4810   -0.7130 h1        1 MOL      0.044900
    142 H61         6.0600    4.4620   -1.5210 hc        1 MOL      0.077927
    143 H62         7.1530    3.5910   -2.5500 hc        1 MOL      0.077927
    144 H63         4.2030    2.7840   -2.1720 hc        1 MOL      0.028840
    145 H64         5.0260    3.1920   -3.6370 hc        1 MOL      0.028840
    146 H65         4.9850    0.5760   -2.8190 h1        1 MOL     -0.024763
    147 H66         6.5020    1.1820   -3.4860 h1        1 MOL     -0.024763
    148 N13         4.8470    1.8700    0.6130 n         1 MOL     -0.283668
    149 C50         4.0700    1.8130    1.8560 c3        1 MOL     -0.077186
    150 C51         4.7940    0.9280    2.9040 c         1 MOL      0.372638
    151 O21         4.5630    1.0320    4.1140 o         1 MOL     -0.573673
    152 C52         2.7100    1.2390    1.5520 c3        1 MOL      0.017271
    153 C53         1.8500    2.0190    0.5360 c3        1 MOL      0.095861
    154 C54         0.5670    1.3680    0.2560 c         1 MOL      0.660807
    155 O22        -0.3890    2.0260   -0.1980 o         1 MOL     -0.719649
    156 O23         0.4060    0.1780    0.5680 o         1 MOL     -0.719649
    157 H67         4.4950    1.2040   -0.0640 hn        1 MOL      0.257456
    158 H68         3.9430    2.8230    2.2590 h1        1 MOL      0.125208
    159 H69         2.1150    1.2400    2.4630 hc        1 MOL      0.034116
    160 H70         2.8230    0.2280    1.1930 hc        1 MOL      0.034116
    161 H71         2.4020    2.0230   -0.4040 hc        1 MOL     -0.030279
    162 H72         1.6240    3.0460    0.8200 hc        1 MOL     -0.030279
    163 N14         5.6650    0.0300    2.4910 n         1 MOL      0.139889
    164 C55         6.4580   -0.8420    3.3180 c3        1 MOL     -0.182956
    165 H73         6.7940   -0.2980    4.2020 h1        1 MOL      0.066982
    166 H74         5.8580   -1.6970    3.6260 h1        1 MOL      0.066982
    167 H75         7.3250   -1.1890    2.7550 h1        1 MOL      0.066982
    168 H76         5.7930    0.1280    1.4910 hn        1 MOL     -0.089534
    169 Ca1        -2.0340    0.0510   -0.3220 Ca        1 MOL      1.708201
    170 O24        -4.7480   -0.1830    1.0950 oh        1 MOL     -0.749461
    171 H77        -5.1410   -0.4030    1.9430 ho        1 MOL      0.380374
    172 H78        -4.4180    0.7080    1.2090 ho        1 MOL      0.380374
    173 O25        -1.7880    0.1630    2.4010 oh        1 MOL     -0.749461
    174 H79        -1.9070    0.3180    3.3390 ho        1 MOL      0.380374
    175 H80        -0.8340    0.1680    2.2830 ho        1 MOL      0.380374
@<TRIPOS>BOND
     1    1    2 1   
     2    1    4 1   
     3    1    5 1   
     4    1    6 1   
     5    2    3 2   
     6    2    7 1   
     7    7    8 1   
     8    7   15 1   
     9    8    9 1   
    10    8   11 1   
    11    8   16 1   
    12    9   10 2   
    13    9   19 1   
    14   11   12 1   
    15   11   17 1   
    16   11   18 1   
    17   12   13 1   
    18   12   14 1   
    19   19   20 1   
    20   19   24 1   
    21   20   21 1   
    22   20   23 1   
    23   20   25 1   
    24   21   22 2   
    25   21   29 1   
    26   23   26 1   
    27   23   27 1   
    28   23   28 1   
    29   29   30 1   
    30   29   37 1   
    31   30   31 1   
    32   30   33 1   
    33   30   38 1   
    34   31   32 2   
    35   31   41 1   
    36   33   34 1   
    37   33   39 1   
    38   33   40 1   
    39   34   35 1   
    40   34   36 1   
    41   41   42 1   
    42   41   45 1   
    43   42   43 1   
    44   42   46 1   
    45   42   47 1   
    46   43   44 2   
    47   43   48 1   
    48   48   49 1   
    49   48   56 1   
    50   49   50 1   
    51   49   52 1   
    52   49   57 1   
    53   50   51 2   
    54   50   62 1   
    55   52   53 1   
    56   52   58 1   
    57   52   59 1   
    58   53   54 1   
    59   53   55 2   
    60   54   60 1   
    61   54   61 1   
    62   62   63 1   
    63   62   66 1   
    64   63   64 1   
    65   63   67 1   
    66   63   68 1   
    67   64   65 2   
    68   64   69 1   
    69   69   70 1   
    70   69   76 1   
    71   70   71 1   
    72   70   73 1   
    73   70   77 1   
    74   71   72 2   
    75   71   83 1   
    76   73   74 1   
    77   73   75 1   
    78   73   78 1   
    79   74   80 1   
    80   74   81 1   
    81   74   82 1   
    82   75   79 1   
    83   83   84 1   
    84   83   91 1   
    85   84   85 1   
    86   84   87 1   
    87   84   92 1   
    88   85   86 2   
    89   85  102 1   
    90   87   88 1   
    91   87   89 1   
    92   87   93 1   
    93   88   90 1   
    94   88   94 1   
    95   88   95 1   
    96   89   96 1   
    97   89   97 1   
    98   89   98 1   
    99   90   99 1   
   100   90  100 1   
   101   90  101 1   
   102  102  103 1   
   103  102  110 1   
   104  103  104 1   
   105  103  106 1   
   106  103  111 1   
   107  104  105 2   
   108  104  114 1   
   109  106  107 1   
   110  106  112 1   
   111  106  113 1   
   112  107  108 1   
   113  107  109 1   
   114  114  115 1   
   115  114  125 1   
   116  115  116 1   
   117  115  118 1   
   118  115  126 1   
   119  116  117 2   
   120  116  134 1   
   121  118  119 1   
   122  118  127 1   
   123  118  128 1   
   124  119  120 ar  
   125  119  121 ar  
   126  120  122 ar  
   127  120  129 1   
   128  121  123 ar  
   129  121  130 1   
   130  122  124 ar  
   131  122  131 1   
   132  123  124 ar  
   133  123  132 1   
   134  124  133 1   
   135  134  135 1   
   136  134  140 1   
   137  135  136 1   
   138  135  138 1   
   139  135  141 1   
   140  136  137 2   
   141  136  148 1   
   142  138  139 1   
   143  138  142 1   
   144  138  143 1   
   145  139  140 1   
   146  139  144 1   
   147  139  145 1   
   148  140  146 1   
   149  140  147 1   
   150  148  149 1   
   151  148  157 1   
   152  149  150 1   
   153  149  152 1   
   154  149  158 1   
   155  150  151 2   
   156  150  163 1   
   157  152  153 1   
   158  152  159 1   
   159  152  160 1   
   160  153  154 1   
   161  153  161 1   
   162  153  162 1   
   163  154  155 1   
   164  154  156 1   
   165  163  164 1   
   166  163  168 1   
   167  164  165 1   
   168  164  166 1   
   169  164  167 1   
   170  170  171 1   
   171  170  172 1   
   172  173  174 1   
   173  173  175 1   
@<TRIPOS>SUBSTRUCTURE
     1 MOL         1 TEMP              0 ****  ****    0 ROOT
