@<TRIPOS>MOLECULE
MOL
  189   185     1     0     0
SMALL
resp


@<TRIPOS>ATOM
      1 C1         -0.4770    3.4500    5.8410 c3        1 MOL     -0.399370
      2 C2         -1.1290    2.8220    4.5150 c         1 MOL      0.660700
      3 O1         -0.9350    1.6060    4.2020 o         1 MOL     -0.591957
      4 H1         -0.3600    4.5260    5.7130 hc        1 MOL      0.104951
      5 H2         -1.1280    3.2550    6.6940 hc        1 MOL      0.104951
      6 H3          0.4980    2.9980    6.0170 hc        1 MOL      0.104951
      7 N1         -1.8970    3.6290    3.7940 n         1 MOL     -0.520281
      8 C3         -2.6550    3.2940    2.6310 c3        1 MOL      0.283309
      9 C4         -2.7950    4.4750    1.7520 c         1 MOL      0.412934
     10 O2         -3.1900    5.4950    2.2590 o         1 MOL     -0.572451
     11 C5         -4.0550    2.8310    3.0850 c3        1 MOL     -0.533413
     12 C6         -4.7960    2.1740    1.9220 c         1 MOL      0.972719
     13 O3         -5.9930    1.8800    2.1060 o         1 MOL     -0.748609
     14 O4         -4.2200    1.9140    0.8770 o         1 MOL     -0.748609
     15 H4         -1.8830    4.6140    3.9800 hn        1 MOL      0.291160
     16 H5         -2.1570    2.4890    2.0910 h1        1 MOL      0.013832
     17 H6         -4.6710    3.6640    3.4020 hc        1 MOL      0.121968
     18 H7         -3.9100    2.1200    3.8980 hc        1 MOL      0.121968
     19 N2         -2.5450    4.4410    0.4470 n         1 MOL     -0.009427
     20 C7         -2.8040    5.5880   -0.5410 c3        1 MOL     -0.174685
     21 C8         -3.9640    5.2380   -1.5060 c         1 MOL      0.532618
     22 O5         -4.5520    6.0240   -2.2060 o         1 MOL     -0.588278
     23 C9         -1.4630    5.9050   -1.2440 c3        1 MOL      0.234032
     24 C10        -0.9550    4.8230   -2.2270 c3        1 MOL      0.073613
     25 C11        -0.3400    6.3660   -0.3200 c3        1 MOL     -0.245453
     26 C12        -0.1410    5.3380   -3.4260 c3        1 MOL     -0.358101
     27 H8         -2.0510    3.6660    0.0390 hn        1 MOL     -0.017593
     28 H9         -2.9900    6.4970    0.0370 h1        1 MOL      0.097331
     29 H10        -1.6470    6.7870   -1.8560 hc        1 MOL     -0.048488
     30 H11        -1.8250    4.3940   -2.7290 hc        1 MOL      0.078259
     31 H12        -0.3660    4.0600   -1.7200 hc        1 MOL      0.078259
     32 H13         0.5540    6.5760   -0.9040 hc        1 MOL      0.044916
     33 H14        -0.6660    7.2540    0.2070 hc        1 MOL      0.044916
     34 H15        -0.0720    5.6760    0.4850 hc        1 MOL      0.044916
     35 H16        -0.1410    4.5790   -4.2190 hc        1 MOL      0.077129
     36 H17        -0.5770    6.2290   -3.8680 hc        1 MOL      0.077129
     37 H18         0.8470    5.5760   -3.0370 hc        1 MOL      0.077129
     38 N3         -4.4120    4.0000   -1.4290 n         1 MOL     -0.331866
     39 C13        -5.2120    3.4120   -2.5430 c3        1 MOL      0.069451
     40 C14        -6.2720    2.3990   -2.1230 c         1 MOL      0.352029
     41 O6         -6.9770    1.9120   -3.0060 o         1 MOL     -0.523488
     42 C15        -4.3060    2.8180   -3.6680 c3        1 MOL     -0.362529
     43 C16        -3.2690    1.7480   -3.2650 c         1 MOL      0.840112
     44 O7         -3.3090    1.3790   -2.0530 o         1 MOL     -0.718550
     45 O8         -2.3170    1.3720   -3.9780 o         1 MOL     -0.718550
     46 H19        -3.8110    3.3720   -0.9240 hn        1 MOL      0.169415
     47 H20        -5.8120    4.2040   -2.9750 h1        1 MOL      0.116322
     48 H21        -3.7840    3.6470   -4.1470 hc        1 MOL      0.080632
     49 H22        -4.9660    2.3060   -4.3740 hc        1 MOL      0.080632
     50 N4         -6.5590    2.1120   -0.8570 n         1 MOL     -0.143637
     51 C17        -7.7860    1.3520   -0.4980 c3        1 MOL     -0.091441
     52 C18        -7.9500   -0.1340   -0.9610 c         1 MOL      0.438126
     53 O9         -9.0630   -0.6360   -1.1920 o         1 MOL     -0.613962
     54 H23        -6.0370    2.5730   -0.1170 hn        1 MOL      0.145646
     55 H24        -8.6390    1.9450   -0.8320 h1        1 MOL      0.075061
     56 H25        -7.7750    1.2460    0.5940 h1        1 MOL      0.075061
     57 N5         -6.8870   -0.9220   -1.1140 n         1 MOL     -0.069032
     58 C19        -6.8760   -2.2660   -1.7560 c3        1 MOL     -0.092190
     59 C20        -6.7180   -3.4860   -0.7290 c         1 MOL      0.263226
     60 O10        -6.5850   -4.6190   -1.2300 o         1 MOL     -0.439983
     61 C21        -5.7810   -2.4840   -2.8070 c3        1 MOL     -0.150230
     62 C22        -4.3520   -2.0890   -2.4150 c         1 MOL      0.640494
     63 O11        -4.1260   -1.6220   -1.2820 o         1 MOL     -0.671131
     64 O12        -3.4450   -2.3450   -3.2530 o         1 MOL     -0.671131
     65 H26        -6.0330   -0.5360   -0.7620 hn        1 MOL      0.127038
     66 H27        -7.8540   -2.4040   -2.2190 h1        1 MOL      0.148053
     67 H28        -6.1050   -1.7410   -3.5450 hc        1 MOL      0.062024
     68 H29        -5.9950   -3.4620   -3.2490 hc        1 MOL      0.062024
     69 N6         -6.7620   -3.2620    0.5680 n         1 MOL     -0.109494
     70 C23        -6.7490   -4.3610    1.6160 c3        1 MOL     -0.262152
     71 C24        -5.3760   -5.0580    1.6680 c         1 MOL      0.616262
     72 O13        -5.3440   -6.2630    1.9780 o         1 MOL     -0.566299
     73 H30        -6.9710   -2.3420    0.9110 hn        1 MOL      0.194239
     74 H31        -7.4720   -5.1010    1.2840 h1        1 MOL      0.110216
     75 H32        -6.9110   -3.9690    2.6170 h1        1 MOL      0.110216
     76 N7         -4.3080   -4.3580    1.3800 n         1 MOL     -0.460149
     77 C25        -2.9510   -4.8900    1.2750 c3        1 MOL      0.011046
     78 C26        -1.8860   -3.7430    1.3530 c         1 MOL      0.624271
     79 O14        -2.2460   -2.6280    0.9950 o         1 MOL     -0.728258
     80 C27        -2.6870   -5.5740   -0.0830 c3        1 MOL     -0.238763
     81 C28        -2.8530   -4.7660   -1.3140 c3        1 MOL      0.059511
     82 C29        -2.3980   -5.4720   -2.5250 c         1 MOL      0.560437
     83 N8         -2.6090   -4.8800   -3.6580 n         1 MOL     -0.729620
     84 O15        -1.7810   -6.5280   -2.5530 o         1 MOL     -0.629444
     85 H33        -4.3460   -3.3490    1.2860 hn        1 MOL      0.287652
     86 H34        -2.7400   -5.6160    2.0590 h1        1 MOL      0.038161
     87 H35        -3.4450   -6.3640   -0.1090 hc        1 MOL      0.080925
     88 H36        -1.7080   -6.0530   -0.0220 hc        1 MOL      0.080925
     89 H37        -2.1760   -3.9130   -1.2410 hc        1 MOL      0.079338
     90 H38        -3.9030   -4.4950   -1.4220 hc        1 MOL      0.079338
     91 H39        -2.8830   -3.9090   -3.6450 hn        1 MOL      0.335630
     92 H40        -2.2100   -5.3520   -4.4530 hn        1 MOL      0.335630
     93 N9         -0.6760   -4.0430    1.8590 n         1 MOL     -0.518579
     94 C30         0.2940   -2.9350    2.1960 c3        1 MOL      0.055725
     95 C31         1.5290   -3.1230    1.3840 c         1 MOL      0.440121
     96 O16         2.1520   -4.1740    1.4210 o         1 MOL     -0.559716
     97 C32         0.5510   -2.7640    3.6820 c3        1 MOL      0.078377
     98 C33         1.3410   -3.8930    4.3830 c3        1 MOL     -0.249466
     99 C34         1.4180   -1.5620    4.0150 c3        1 MOL     -0.249466
    100 H41        -0.5350   -4.9820    2.2000 hn        1 MOL      0.332934
    101 H42        -0.1610   -2.0010    1.8770 h1        1 MOL      0.189135
    102 H43        -0.3930   -2.7400    4.2290 hc        1 MOL      0.001525
    103 H44         2.3780   -3.8510    4.0400 hc        1 MOL      0.061337
    104 H45         1.3330   -3.8660    5.4700 hc        1 MOL      0.061337
    105 H46         0.8130   -4.8140    4.1130 hc        1 MOL      0.061337
    106 H47         1.6380   -1.5840    5.0750 hc        1 MOL      0.061337
    107 H48         2.3890   -1.6670    3.5370 hc        1 MOL      0.061337
    108 H49         0.9420   -0.6190    3.7450 hc        1 MOL      0.061337
    109 N10         1.8560   -2.1010    0.5540 n         1 MOL     -0.040404
    110 C35         2.8660   -2.1190   -0.5110 c3        1 MOL     -0.034791
    111 C36         4.2470   -1.7570    0.0410 c         1 MOL      0.343245
    112 O17         4.3550   -1.0760    1.0930 o         1 MOL     -0.351353
    113 C37         2.4120   -1.0380   -1.4190 c3        1 MOL     -0.222035
    114 C38         3.3110   -0.8240   -2.6200 c         1 MOL      0.691465
    115 N11         3.4720   -1.8240   -3.4030 n         1 MOL     -0.756343
    116 O18         3.9690    0.1690   -2.8040 o         1 MOL     -0.523581
    117 H50         1.1990   -1.3460    0.5320 hn        1 MOL      0.078578
    118 H51         2.9410   -3.1100   -0.9800 h1        1 MOL      0.033650
    119 H52         2.4350   -0.0950   -0.8800 hc        1 MOL      0.108125
    120 H53         1.3930   -1.2430   -1.7390 hc        1 MOL      0.108125
    121 H54         3.1280   -2.7110   -3.0550 hn        1 MOL      0.346128
    122 H55         4.1060   -1.8040   -4.1910 hn        1 MOL      0.346128
    123 N12         5.2610   -2.1090   -0.7680 n         1 MOL     -0.420503
    124 C39         6.5950   -1.6230   -0.5020 c3        1 MOL      0.142853
    125 C40         6.6960   -0.1170   -0.0690 c         1 MOL      0.767547
    126 O19         7.3900    0.2420    0.9040 o         1 MOL     -0.566993
    127 C41         7.4570   -1.9490   -1.6610 c3        1 MOL     -0.021592
    128 C42         8.9480   -2.2030   -1.4760 ca        1 MOL      0.166789
    129 C43         9.5500   -1.9980   -0.2390 ca        1 MOL     -0.301426
    130 C44         9.6880   -2.6340   -2.5820 ca        1 MOL     -0.301426
    131 C45        10.9350   -1.9810   -0.1300 ca        1 MOL     -0.128307
    132 C46        11.0950   -2.6690   -2.4420 ca        1 MOL     -0.128307
    133 C47        11.7500   -2.2960   -1.2540 ca        1 MOL      0.249484
    134 O20        13.1000   -2.4690   -1.1050 oh        1 MOL     -0.462718
    135 H56         5.1220   -2.7570   -1.5330 hn        1 MOL      0.279501
    136 H57         6.9150   -2.2300    0.3450 h1        1 MOL      0.008056
    137 H58         7.3130   -1.0810   -2.3180 hc        1 MOL      0.004969
    138 H59         7.0210   -2.7940   -2.1870 hc        1 MOL      0.004969
    139 H60         8.9660   -1.8750    0.6610 ha        1 MOL      0.144433
    140 H61         9.1190   -2.9980   -3.4230 ha        1 MOL      0.144433
    141 H62        11.4390   -1.8240    0.8130 ha        1 MOL      0.112244
    142 H63        11.6550   -3.0170   -3.2950 ha        1 MOL      0.112244
    143 H64        13.4920   -2.9310   -1.8610 ho        1 MOL      0.315115
    144 N13         5.9380    0.8120   -0.6260 n         1 MOL     -0.405497
    145 C48         5.9990    2.2900   -0.3530 c3        1 MOL     -0.128303
    146 C49         5.0340    2.7900    0.7020 c         1 MOL      0.453494
    147 O21         4.9400    3.9700    0.9660 o         1 MOL     -0.532249
    148 C50         5.6970    3.1330   -1.6400 c3        1 MOL      0.151001
    149 C51         6.7330    2.9770   -2.7770 c3        1 MOL     -0.241590
    150 C52         8.1190    3.2140   -2.2380 c         1 MOL      0.674618
    151 O22         9.0060    2.4450   -2.6030 o         1 MOL     -0.717920
    152 O23         8.3560    4.1410   -1.4250 o         1 MOL     -0.717920
    153 H65         5.2620    0.5150   -1.3110 hn        1 MOL      0.196249
    154 H66         6.9990    2.5170    0.0210 h1        1 MOL      0.159478
    155 H67         5.6600    4.1990   -1.4230 hc        1 MOL     -0.003090
    156 H68         4.6850    2.8840   -1.9470 hc        1 MOL     -0.003090
    157 H69         6.4410    3.6940   -3.5420 hc        1 MOL      0.024311
    158 H70         6.6270    2.0110   -3.2570 hc        1 MOL      0.024311
    159 N14         4.2830    1.8560    1.3220 n         1 MOL     -0.169894
    160 C53         3.3600    1.9900    2.4500 c3        1 MOL      0.036235
    161 C54         3.9110    1.3260    3.7630 c         1 MOL      0.373984
    162 O24         3.7310    1.8030    4.8770 o         1 MOL     -0.534779
    163 C55         2.0390    1.3990    2.0260 c3        1 MOL      0.055461
    164 C56         1.4170    1.9670    0.7770 c3        1 MOL     -0.284924
    165 C57         0.0980    1.2140    0.4040 c         1 MOL      0.799998
    166 O25        -0.8640    1.9170   -0.0240 o         1 MOL     -0.725446
    167 O26        -0.0080   -0.0430    0.3620 o         1 MOL     -0.725446
    168 H71         4.3930    0.9380    0.9100 hn        1 MOL      0.033285
    169 H72         3.3390    3.0600    2.6900 h1        1 MOL      0.058083
    170 H73         1.4030    1.6130    2.8830 hc        1 MOL      0.025391
    171 H74         2.1710    0.3430    1.7800 hc        1 MOL      0.025391
    172 H75         2.1020    1.8830   -0.0640 hc        1 MOL      0.079380
    173 H76         1.2760    3.0300    0.9840 hc        1 MOL      0.079380
    174 N15         4.7350    0.2800    3.5490 n         1 MOL     -0.040969
    175 C58         5.1990   -0.6010    4.6140 c3        1 MOL     -0.132253
    176 H77         4.9740   -1.6350    4.3530 h1        1 MOL      0.062823
    177 H78         6.2760   -0.4840    4.7390 h1        1 MOL      0.062823
    178 H79         4.6940   -0.3430    5.5450 h1        1 MOL      0.062823
    179 H80         4.9890    0.0250    2.6110 hn        1 MOL      0.009852
    180 Ca1        -2.6690   -0.0640    0.0580 Ca        1 MOL      1.766173
    181 O27        -2.0910   -0.2120    2.6710 oh        1 MOL     -0.867563
    182 H81        -1.4150    0.2980    3.0960 ho        1 MOL      0.415065
    183 H82        -2.2980   -0.9130    3.2890 ho        1 MOL      0.415065
    184 O28        -1.5140   -0.7320   -2.4080 oh        1 MOL     -0.867563
    185 H83        -2.1400   -1.4200   -2.6090 ho        1 MOL      0.415065
    186 H84        -1.8930    0.0660   -2.7840 ho        1 MOL      0.415065
    187 O29        -4.5730   -1.0410    2.0420 oh        1 MOL     -0.867563
    188 H85        -4.1510   -1.2980    2.8650 ho        1 MOL      0.415065
    189 H86        -5.4580   -1.4060    2.0960 ho        1 MOL      0.415065
@<TRIPOS>BOND
     1    1    2 1   
     2    1    4 1   
     3    1    5 1   
     4    1    6 1   
     5    2    3 2   
     6    2    7 1   
     7    7    8 1   
     8    7   15 1   
     9    8    9 1   
    10    8   11 1   
    11    8   16 1   
    12    9   10 2   
    13    9   19 1   
    14   11   12 1   
    15   11   17 1   
    16   11   18 1   
    17   12   13 1   
    18   12   14 1   
    19   19   20 1   
    20   19   27 1   
    21   20   21 1   
    22   20   23 1   
    23   20   28 1   
    24   21   22 2   
    25   21   38 1   
    26   23   24 1   
    27   23   25 1   
    28   23   29 1   
    29   24   26 1   
    30   24   30 1   
    31   24   31 1   
    32   25   32 1   
    33   25   33 1   
    34   25   34 1   
    35   26   35 1   
    36   26   36 1   
    37   26   37 1   
    38   38   39 1   
    39   38   46 1   
    40   39   40 1   
    41   39   42 1   
    42   39   47 1   
    43   40   41 2   
    44   40   50 1   
    45   42   43 1   
    46   42   48 1   
    47   42   49 1   
    48   43   44 1   
    49   43   45 1   
    50   50   51 1   
    51   50   54 1   
    52   51   52 1   
    53   51   55 1   
    54   51   56 1   
    55   52   53 2   
    56   52   57 1   
    57   57   58 1   
    58   57   65 1   
    59   58   59 1   
    60   58   61 1   
    61   58   66 1   
    62   59   60 2   
    63   59   69 1   
    64   61   62 1   
    65   61   67 1   
    66   61   68 1   
    67   62   63 1   
    68   62   64 1   
    69   69   70 1   
    70   69   73 1   
    71   70   71 1   
    72   70   74 1   
    73   70   75 1   
    74   71   72 2   
    75   71   76 1   
    76   76   77 1   
    77   76   85 1   
    78   77   78 1   
    79   77   80 1   
    80   77   86 1   
    81   78   79 2   
    82   78   93 1   
    83   80   81 1   
    84   80   87 1   
    85   80   88 1   
    86   81   82 1   
    87   81   89 1   
    88   81   90 1   
    89   82   83 1   
    90   82   84 2   
    91   83   91 1   
    92   83   92 1   
    93   93   94 1   
    94   93  100 1   
    95   94   95 1   
    96   94   97 1   
    97   94  101 1   
    98   95   96 2   
    99   95  109 1   
   100   97   98 1   
   101   97   99 1   
   102   97  102 1   
   103   98  103 1   
   104   98  104 1   
   105   98  105 1   
   106   99  106 1   
   107   99  107 1   
   108   99  108 1   
   109  109  110 1   
   110  109  117 1   
   111  110  111 1   
   112  110  113 1   
   113  110  118 1   
   114  111  112 2   
   115  111  123 1   
   116  113  114 1   
   117  113  119 1   
   118  113  120 1   
   119  114  115 1   
   120  114  116 2   
   121  115  121 1   
   122  115  122 1   
   123  123  124 1   
   124  123  135 1   
   125  124  125 1   
   126  124  127 1   
   127  124  136 1   
   128  125  126 2   
   129  125  144 1   
   130  127  128 1   
   131  127  137 1   
   132  127  138 1   
   133  128  129 ar  
   134  128  130 ar  
   135  129  131 ar  
   136  129  139 1   
   137  130  132 ar  
   138  130  140 1   
   139  131  133 ar  
   140  131  141 1   
   141  132  133 ar  
   142  132  142 1   
   143  133  134 1   
   144  134  143 1   
   145  144  145 1   
   146  144  153 1   
   147  145  146 1   
   148  145  148 1   
   149  145  154 1   
   150  146  147 2   
   151  146  159 1   
   152  148  149 1   
   153  148  155 1   
   154  148  156 1   
   155  149  150 1   
   156  149  157 1   
   157  149  158 1   
   158  150  151 1   
   159  150  152 1   
   160  159  160 1   
   161  159  168 1   
   162  160  161 1   
   163  160  163 1   
   164  160  169 1   
   165  161  162 2   
   166  161  174 1   
   167  163  164 1   
   168  163  170 1   
   169  163  171 1   
   170  164  165 1   
   171  164  172 1   
   172  164  173 1   
   173  165  166 1   
   174  165  167 1   
   175  174  175 1   
   176  174  179 1   
   177  175  176 1   
   178  175  177 1   
   179  175  178 1   
   180  181  182 1   
   181  181  183 1   
   182  184  185 1   
   183  184  186 1   
   184  187  188 1   
   185  187  189 1   
@<TRIPOS>SUBSTRUCTURE
     1 MOL         1 TEMP              0 ****  ****    0 ROOT
