@<TRIPOS>MOLECULE
MOL
  189   185     1     0     0
SMALL
resp


@<TRIPOS>ATOM
      1 C1         -0.2110   -4.1890    6.0050 c3        1 MOL     -0.403578
      2 C2          0.3210   -3.6360    4.6420 c         1 MOL      0.714567
      3 O1          0.4330   -2.3900    4.5330 o         1 MOL     -0.613573
      4 H1         -1.2760   -4.4070    5.9170 hc        1 MOL      0.104636
      5 H2          0.3270   -5.1020    6.2610 hc        1 MOL      0.104636
      6 H3         -0.0570   -3.4450    6.7850 hc        1 MOL      0.104636
      7 N1          0.6960   -4.4670    3.6790 n         1 MOL     -0.582462
      8 C3          1.2840   -4.0380    2.3620 c3        1 MOL      0.232128
      9 C4          1.0710   -5.0650    1.3010 c         1 MOL      0.376517
     10 O2          1.3240   -6.2300    1.4590 o         1 MOL     -0.590084
     11 C5          2.8630   -4.0740    2.5240 c3        1 MOL     -0.189320
     12 C6          3.6030   -3.4680    1.2700 c         1 MOL      0.827256
     13 O3          4.8490   -3.4080    1.3160 o         1 MOL     -0.722981
     14 O4          3.0180   -2.9760    0.2710 o         1 MOL     -0.722981
     15 H4          0.6350   -5.4630    3.8200 hn        1 MOL      0.309915
     16 H5          0.8680   -3.0830    2.0520 h1        1 MOL      0.043648
     17 H6          3.2010   -5.0980    2.6780 hc        1 MOL      0.041005
     18 H7          3.1960   -3.5810    3.4340 hc        1 MOL      0.041005
     19 N2          0.7740   -4.6360    0.0930 n         1 MOL      0.049514
     20 C7          0.6470   -5.4970   -1.1330 c3        1 MOL     -0.205772
     21 C8          1.3990   -4.9790   -2.4060 c         1 MOL      0.524374
     22 O5          1.1490   -5.4170   -3.5360 o         1 MOL     -0.566196
     23 C9         -0.8280   -5.7960   -1.3250 c3        1 MOL      0.358130
     24 C10        -1.7010   -4.4740   -1.4960 c3        1 MOL     -0.004122
     25 C11        -1.4300   -6.7420   -0.3100 c3        1 MOL     -0.216581
     26 C12        -3.0510   -4.8410   -2.0560 c3        1 MOL     -0.248339
     27 H8          0.5470   -3.6550    0.0210 hn        1 MOL      0.025062
     28 H9          1.1520   -6.4340   -0.8890 h1        1 MOL      0.092541
     29 H10        -0.8300   -6.3450   -2.2610 hc        1 MOL     -0.066367
     30 H11        -1.2670   -3.7830   -2.2170 hc        1 MOL      0.070068
     31 H12        -1.7940   -3.9820   -0.5280 hc        1 MOL      0.070068
     32 H13        -0.7970   -7.6290   -0.2360 hc        1 MOL      0.026884
     33 H14        -1.5490   -6.3280    0.6870 hc        1 MOL      0.026884
     34 H15        -2.3700   -7.1800   -0.6490 hc        1 MOL      0.026884
     35 H16        -3.4830   -5.6560   -1.4790 hc        1 MOL      0.043863
     36 H17        -3.7320   -3.9880   -2.0590 hc        1 MOL      0.043863
     37 H18        -2.9080   -5.2230   -3.0620 hc        1 MOL      0.043863
     38 N3          2.4410   -4.0770   -2.2710 n         1 MOL     -0.386180
     39 C13         3.3300   -3.6770   -3.4040 c3        1 MOL     -0.015697
     40 C14         4.7640   -3.3850   -3.0210 c         1 MOL      0.426756
     41 O6          5.6080   -3.3290   -3.8540 o         1 MOL     -0.538479
     42 C15         2.7280   -2.4820   -4.2080 c3        1 MOL     -0.171106
     43 C16         2.5970   -1.2000   -3.5310 c         1 MOL      0.835966
     44 O7          2.8750   -1.1270   -2.3520 o         1 MOL     -0.756208
     45 O8          1.9250   -0.3390   -4.1310 o         1 MOL     -0.756208
     46 H19         2.6070   -3.7610   -1.3270 hn        1 MOL      0.200437
     47 H20         3.4520   -4.5310   -4.0610 h1        1 MOL      0.098921
     48 H21         1.7200   -2.7220   -4.5700 hc        1 MOL      0.050767
     49 H22         3.2490   -2.3910   -5.1590 hc        1 MOL      0.050767
     50 N4          5.1640   -3.2260   -1.7200 n         1 MOL     -0.197711
     51 C17         6.6100   -3.1030   -1.3800 c3        1 MOL     -0.360777
     52 C18         7.2320   -1.6840   -1.6130 c         1 MOL      0.453738
     53 O9          8.4420   -1.4980   -1.5800 o         1 MOL     -0.586939
     54 H23         4.4440   -3.3230   -1.0170 hn        1 MOL      0.184974
     55 H24         7.1590   -3.8280   -1.9840 h1        1 MOL      0.162233
     56 H25         6.7090   -3.5700   -0.4040 h1        1 MOL      0.162233
     57 N5          6.3490   -0.6780   -1.7810 n         1 MOL     -0.004175
     58 C19         6.7070    0.6910   -2.2050 c3        1 MOL     -0.157032
     59 C20         7.2800    1.6520   -1.1690 c         1 MOL      0.397559
     60 O10         7.9280    2.6430   -1.5420 o         1 MOL     -0.531868
     61 C21         5.6430    1.3620   -3.0310 c3        1 MOL     -0.051145
     62 C22         4.4060    1.6990   -2.1030 c         1 MOL      0.752780
     63 O11         4.2680    1.1510   -0.9870 o         1 MOL     -0.709474
     64 O12         3.5990    2.5610   -2.5110 o         1 MOL     -0.709474
     65 H26         5.3780   -0.9580   -1.8450 hn        1 MOL      0.131481
     66 H27         7.5140    0.5230   -2.9280 h1        1 MOL      0.096919
     67 H28         5.2460    0.7190   -3.8180 hc        1 MOL      0.021180
     68 H29         5.8600    2.3250   -3.4910 hc        1 MOL      0.021180
     69 N6          6.9910    1.3720    0.1090 n         1 MOL     -0.146252
     70 C23         7.2990    2.2170    1.2800 c3        1 MOL      0.000251
     71 C24         6.2290    3.1860    1.6910 c         1 MOL      0.503177
     72 O13         6.5470    4.0180    2.5700 o         1 MOL     -0.613004
     73 H30         6.7160    0.4380    0.3510 hn        1 MOL      0.187169
     74 H31         8.2280    2.6950    0.9740 h1        1 MOL      0.024775
     75 H32         7.5430    1.4760    2.0430 h1        1 MOL      0.024775
     76 N7          5.0130    3.0080    1.2280 n         1 MOL     -0.236043
     77 C25         3.8850    3.8600    1.6510 c3        1 MOL     -0.050807
     78 C26         2.5200    3.1050    1.7000 c         1 MOL      0.397002
     79 O14         2.3630    1.9110    1.2950 o         1 MOL     -0.486497
     80 C27         3.8560    4.9890    0.6050 c3        1 MOL     -0.009890
     81 C28         5.0190    5.9640    0.5730 c3        1 MOL     -0.290886
     82 C29         4.8060    7.2380   -0.2820 c         1 MOL      0.720332
     83 N8          5.8160    8.0380   -0.6010 n         1 MOL     -0.839492
     84 O15         3.7440    7.4840   -0.8170 o         1 MOL     -0.556716
     85 H33         4.9270    2.1310    0.7380 hn        1 MOL      0.212487
     86 H34         4.0900    4.3050    2.6170 h1        1 MOL      0.089030
     87 H35         3.0210    5.6630    0.8330 hc        1 MOL      0.056667
     88 H36         3.7120    4.5880   -0.3930 hc        1 MOL      0.056667
     89 H37         5.8390    5.4810    0.0370 hc        1 MOL      0.091653
     90 H38         5.2840    6.2160    1.6010 hc        1 MOL      0.091653
     91 H39         6.7380    7.9010   -0.2100 hn        1 MOL      0.353555
     92 H40         5.6790    8.8170   -1.2330 hn        1 MOL      0.353555
     93 N9          1.4160    3.6860    2.2880 n         1 MOL     -0.425741
     94 C30         0.1100    3.0790    2.5300 c3        1 MOL     -0.029179
     95 C31        -0.9340    3.5610    1.5180 c         1 MOL      0.574756
     96 O16        -1.2780    4.7460    1.5070 o         1 MOL     -0.588876
     97 C32        -0.4180    3.2780    3.9130 c3        1 MOL      0.311037
     98 C33        -1.4270    2.2140    4.2410 c3        1 MOL     -0.379690
     99 C34         0.7010    3.0700    4.9190 c3        1 MOL     -0.379690
    100 H41         1.6140    4.6340    2.5750 hn        1 MOL      0.295231
    101 H42         0.2380    2.0120    2.3810 h1        1 MOL      0.068243
    102 H43        -0.8860    4.2390    4.1110 hc        1 MOL     -0.044071
    103 H44        -2.1940    2.3060    3.4640 hc        1 MOL      0.082162
    104 H45        -1.1060    1.1740    4.2360 hc        1 MOL      0.082162
    105 H46        -1.7550    2.4140    5.2570 hc        1 MOL      0.082162
    106 H47         1.0980    2.0900    4.6650 hc        1 MOL      0.082162
    107 H48         1.4840    3.8220    4.8270 hc        1 MOL      0.082162
    108 H49         0.3830    2.9730    5.9580 hc        1 MOL      0.082162
    109 N10        -1.3120    2.5840    0.6600 n         1 MOL     -0.400212
    110 C35        -2.4430    2.6740   -0.2490 c3        1 MOL      0.178319
    111 C36        -3.6910    2.4710    0.5500 c         1 MOL      0.156384
    112 O17        -3.7000    1.7950    1.5650 o         1 MOL     -0.199110
    113 C37        -2.2040    1.7060   -1.3850 c3        1 MOL     -0.510045
    114 C38        -3.3590    1.5350   -2.4080 c         1 MOL      0.804127
    115 N11        -3.3580    2.4740   -3.3130 n         1 MOL     -0.754091
    116 O18        -4.3110    0.7660   -2.2700 o         1 MOL     -0.682062
    117 H50        -0.8470    1.6890    0.7370 hn        1 MOL      0.290335
    118 H51        -2.4540    3.6970   -0.6200 h1        1 MOL      0.060495
    119 H52        -2.0870    0.6800   -1.0480 hc        1 MOL      0.187032
    120 H53        -1.2880    1.7760   -1.9770 hc        1 MOL      0.187032
    121 H54        -2.6180    3.1620   -3.2590 hn        1 MOL      0.330455
    122 H55        -4.0770    2.5330   -4.0130 hn        1 MOL      0.330455
    123 N12        -4.7960    2.9630    0.0860 n         1 MOL     -0.215769
    124 C39        -6.2480    2.6820    0.5130 c3        1 MOL      0.091454
    125 C40        -6.5500    1.2370    0.8460 c         1 MOL      0.324010
    126 O19        -7.0880    0.9730    1.9110 o         1 MOL     -0.503118
    127 C41        -7.2610    3.3740   -0.4040 c3        1 MOL     -0.183477
    128 C42        -6.9780    3.2690   -1.8850 ca        1 MOL      0.212533
    129 C43        -6.3080    4.3000   -2.5680 ca        1 MOL     -0.269402
    130 C44        -7.5350    2.2630   -2.6920 ca        1 MOL     -0.269402
    131 C45        -6.0070    4.0900   -3.9270 ca        1 MOL     -0.216662
    132 C46        -7.2250    2.0600   -4.0240 ca        1 MOL     -0.216662
    133 C47        -6.4820    2.9790   -4.7170 ca        1 MOL      0.360958
    134 O20        -6.2100    2.8950   -6.0300 oh        1 MOL     -0.466723
    135 H56        -4.7580    3.5170   -0.7590 hn        1 MOL      0.142141
    136 H57        -6.4160    3.1970    1.4610 h1        1 MOL      0.059360
    137 H58        -7.2170    4.4220   -0.1230 hc        1 MOL      0.069269
    138 H59        -8.2970    3.0850   -0.2130 hc        1 MOL      0.069269
    139 H60        -5.8420    5.1200   -2.0430 ha        1 MOL      0.137084
    140 H61        -8.1940    1.5140   -2.2800 ha        1 MOL      0.137084
    141 H62        -5.5070    4.8570   -4.4980 ha        1 MOL      0.101240
    142 H63        -7.6580    1.2500   -4.5860 ha        1 MOL      0.101240
    143 H64        -5.7670    3.6450   -6.4240 ho        1 MOL      0.330295
    144 N13        -6.2660    0.2980   -0.0810 n         1 MOL     -0.214598
    145 C48        -6.4700   -1.1460    0.0810 c3        1 MOL     -0.413558
    146 C49        -5.6380   -1.7790    1.1740 c         1 MOL      0.572370
    147 O21        -6.0520   -2.8140    1.6880 o         1 MOL     -0.539791
    148 C50        -6.2060   -1.9010   -1.2030 c3        1 MOL      0.032064
    149 C51        -7.1410   -1.4900   -2.3480 c3        1 MOL     -0.046216
    150 C52        -8.6420   -1.4370   -1.8790 c         1 MOL      0.556886
    151 O22        -9.1120   -2.3350   -1.1670 o         1 MOL     -0.665709
    152 O23        -9.3360   -0.4640   -2.2550 o         1 MOL     -0.665709
    153 H65        -5.8730    0.6640   -0.9390 hn        1 MOL      0.539744
    154 H66        -7.5170   -1.2810    0.3650 h1        1 MOL      0.237919
    155 H67        -6.3270   -2.9690   -1.0460 hc        1 MOL      0.016476
    156 H68        -5.2050   -1.7290   -1.5970 hc        1 MOL      0.016476
    157 H69        -6.9650   -2.1820   -3.1670 hc        1 MOL      0.014052
    158 H70        -6.8150   -0.5250   -2.7220 hc        1 MOL      0.014052
    159 N14        -4.5810   -1.0650    1.6540 n         1 MOL     -0.188099
    160 C53        -3.7700   -1.4730    2.8010 c3        1 MOL      0.021777
    161 C54        -4.1300   -0.7890    4.1210 c         1 MOL      0.450750
    162 O24        -4.1670   -1.3710    5.1730 o         1 MOL     -0.569985
    163 C55        -2.2850   -1.1500    2.6510 c3        1 MOL      0.068967
    164 C56        -1.7040   -1.8090    1.3510 c3        1 MOL     -0.050990
    165 C57        -0.4780   -1.0830    0.6880 c         1 MOL      0.512351
    166 O25         0.2020   -1.7260   -0.1270 o         1 MOL     -0.624046
    167 O26        -0.0660    0.0580    1.0600 o         1 MOL     -0.624046
    168 H71        -4.2470   -0.2440    1.1700 hn        1 MOL      0.063092
    169 H72        -3.8940   -2.5460    2.9910 h1        1 MOL      0.021514
    170 H73        -1.9000   -1.7000    3.5010 hc        1 MOL      0.021650
    171 H74        -2.0840   -0.0750    2.7660 hc        1 MOL      0.021650
    172 H75        -2.5210   -1.7870    0.6250 hc        1 MOL     -0.026710
    173 H76        -1.4370   -2.8600    1.4210 hc        1 MOL     -0.026710
    174 N15        -4.3920    0.5040    3.9700 n         1 MOL      0.021488
    175 C58        -4.8410    1.3270    5.0830 c3        1 MOL     -0.353655
    176 H77        -5.7230    0.8720    5.5370 h1        1 MOL      0.103346
    177 H78        -4.0460    1.3990    5.8250 h1        1 MOL      0.103346
    178 H79        -5.0930    2.3230    4.7200 h1        1 MOL      0.103346
    179 H80        -4.6200    0.7750    3.0200 hn        1 MOL      0.038152
    180 Ca1         2.4530   -0.3690    0.1300 Ca        1 MOL      1.772357
    181 O27         2.4640   -0.9170    2.8640 oh        1 MOL     -0.921182
    182 H81         2.8340   -0.3200    3.5120 ho        1 MOL      0.427092
    183 H82         1.7040   -1.3100    3.3060 ho        1 MOL      0.427092
    184 O28         5.0460   -0.7920    1.3650 oh        1 MOL     -0.921182
    185 H83         4.9560   -1.7400    1.2340 ho        1 MOL      0.427092
    186 H84         5.3880   -0.7130    2.2530 ho        1 MOL      0.427092
    187 O29         1.3580    1.2600   -1.7950 oh        1 MOL     -0.921182
    188 H85         2.0030    1.9650   -1.9360 ho        1 MOL      0.427092
    189 H86         1.3480    0.7820   -2.6170 ho        1 MOL      0.427092
@<TRIPOS>BOND
     1    1    2 1   
     2    1    4 1   
     3    1    5 1   
     4    1    6 1   
     5    2    3 2   
     6    2    7 1   
     7    7    8 1   
     8    7   15 1   
     9    8    9 1   
    10    8   11 1   
    11    8   16 1   
    12    9   10 2   
    13    9   19 1   
    14   11   12 1   
    15   11   17 1   
    16   11   18 1   
    17   12   13 1   
    18   12   14 1   
    19   19   20 1   
    20   19   27 1   
    21   20   21 1   
    22   20   23 1   
    23   20   28 1   
    24   21   22 2   
    25   21   38 1   
    26   23   24 1   
    27   23   25 1   
    28   23   29 1   
    29   24   26 1   
    30   24   30 1   
    31   24   31 1   
    32   25   32 1   
    33   25   33 1   
    34   25   34 1   
    35   26   35 1   
    36   26   36 1   
    37   26   37 1   
    38   38   39 1   
    39   38   46 1   
    40   39   40 1   
    41   39   42 1   
    42   39   47 1   
    43   40   41 2   
    44   40   50 1   
    45   42   43 1   
    46   42   48 1   
    47   42   49 1   
    48   43   44 1   
    49   43   45 1   
    50   50   51 1   
    51   50   54 1   
    52   51   52 1   
    53   51   55 1   
    54   51   56 1   
    55   52   53 2   
    56   52   57 1   
    57   57   58 1   
    58   57   65 1   
    59   58   59 1   
    60   58   61 1   
    61   58   66 1   
    62   59   60 2   
    63   59   69 1   
    64   61   62 1   
    65   61   67 1   
    66   61   68 1   
    67   62   63 1   
    68   62   64 1   
    69   69   70 1   
    70   69   73 1   
    71   70   71 1   
    72   70   74 1   
    73   70   75 1   
    74   71   72 2   
    75   71   76 1   
    76   76   77 1   
    77   76   85 1   
    78   77   78 1   
    79   77   80 1   
    80   77   86 1   
    81   78   79 2   
    82   78   93 1   
    83   80   81 1   
    84   80   87 1   
    85   80   88 1   
    86   81   82 1   
    87   81   89 1   
    88   81   90 1   
    89   82   83 1   
    90   82   84 2   
    91   83   91 1   
    92   83   92 1   
    93   93   94 1   
    94   93  100 1   
    95   94   95 1   
    96   94   97 1   
    97   94  101 1   
    98   95   96 2   
    99   95  109 1   
   100   97   98 1   
   101   97   99 1   
   102   97  102 1   
   103   98  103 1   
   104   98  104 1   
   105   98  105 1   
   106   99  106 1   
   107   99  107 1   
   108   99  108 1   
   109  109  110 1   
   110  109  117 1   
   111  110  111 1   
   112  110  113 1   
   113  110  118 1   
   114  111  112 2   
   115  111  123 1   
   116  113  114 1   
   117  113  119 1   
   118  113  120 1   
   119  114  115 1   
   120  114  116 2   
   121  115  121 1   
   122  115  122 1   
   123  123  124 1   
   124  123  135 1   
   125  124  125 1   
   126  124  127 1   
   127  124  136 1   
   128  125  126 2   
   129  125  144 1   
   130  127  128 1   
   131  127  137 1   
   132  127  138 1   
   133  128  129 ar  
   134  128  130 ar  
   135  129  131 ar  
   136  129  139 1   
   137  130  132 ar  
   138  130  140 1   
   139  131  133 ar  
   140  131  141 1   
   141  132  133 ar  
   142  132  142 1   
   143  133  134 1   
   144  134  143 1   
   145  144  145 1   
   146  144  153 1   
   147  145  146 1   
   148  145  148 1   
   149  145  154 1   
   150  146  147 2   
   151  146  159 1   
   152  148  149 1   
   153  148  155 1   
   154  148  156 1   
   155  149  150 1   
   156  149  157 1   
   157  149  158 1   
   158  150  151 1   
   159  150  152 1   
   160  159  160 1   
   161  159  168 1   
   162  160  161 1   
   163  160  163 1   
   164  160  169 1   
   165  161  162 2   
   166  161  174 1   
   167  163  164 1   
   168  163  170 1   
   169  163  171 1   
   170  164  165 1   
   171  164  172 1   
   172  164  173 1   
   173  165  166 1   
   174  165  167 1   
   175  174  175 1   
   176  174  179 1   
   177  175  176 1   
   178  175  177 1   
   179  175  178 1   
   180  181  182 1   
   181  181  183 1   
   182  184  185 1   
   183  184  186 1   
   184  187  188 1   
   185  187  189 1   
@<TRIPOS>SUBSTRUCTURE
     1 MOL         1 TEMP              0 ****  ****    0 ROOT
