@<TRIPOS>MOLECULE
MOL
  186   183     1     0     0
SMALL
resp


@<TRIPOS>ATOM
      1 C1          1.1440   -1.6680    6.4700 c3        1 MOL     -0.244533
      2 C2          1.2890   -1.8400    4.9650 c         1 MOL      0.735839
      3 O1          0.3840   -2.4290    4.3300 o         1 MOL     -0.608312
      4 H1          1.9840   -2.1470    6.9720 hc        1 MOL      0.052433
      5 H2          1.1330   -0.6060    6.7140 hc        1 MOL      0.052433
      6 H3          0.2130   -2.1280    6.8010 hc        1 MOL      0.052433
      7 N1          2.3540   -1.3530    4.3600 n         1 MOL     -0.553166
      8 C3          2.8150   -1.4740    2.9360 c3        1 MOL      0.083409
      9 C4          3.4030   -2.8620    2.6950 c         1 MOL      0.426578
     10 O2          4.1200   -3.4250    3.5830 o         1 MOL     -0.566652
     11 C5          3.8690   -0.3830    2.6580 c3        1 MOL     -0.202374
     12 C6          4.5110   -0.4840    1.1990 c         1 MOL      0.808711
     13 O3          5.6540   -0.1070    1.0370 o         1 MOL     -0.703158
     14 O4          3.7790   -0.9520    0.2820 o         1 MOL     -0.703158
     15 H4          2.9560   -0.8340    4.9880 hn        1 MOL      0.291351
     16 H5          1.9540   -1.3200    2.2860 h1        1 MOL      0.077701
     17 H6          4.5940   -0.3260    3.4690 hc        1 MOL      0.044834
     18 H7          3.4150    0.6100    2.7210 hc        1 MOL      0.044834
     19 N2          3.1060   -3.3960    1.5350 n         1 MOL     -0.204824
     20 C7          3.2860   -4.8570    1.1610 c3        1 MOL     -0.028523
     21 C8          4.3680   -4.9380    0.0760 c         1 MOL      0.402542
     22 O5          5.2640   -5.8300    0.0130 o         1 MOL     -0.547963
     23 C9          1.9320   -5.4100    0.7550 c3        1 MOL      0.227275
     24 C10         0.8190   -5.3210    1.9030 c3        1 MOL      0.034409
     25 C11         1.9660   -6.8580    0.3850 c3        1 MOL     -0.361663
     26 C12        -0.4800   -6.0710    1.6170 c3        1 MOL     -0.097305
     27 H8          2.5300   -2.9000    0.8640 hn        1 MOL      0.144603
     28 H9          3.5220   -5.3480    2.1040 h1        1 MOL      0.063444
     29 H10         1.5450   -4.8800   -0.1230 hc        1 MOL      0.044876
     30 H11         0.5310   -4.3260    2.2620 hc        1 MOL      0.003077
     31 H12         1.2300   -5.8430    2.7600 hc        1 MOL      0.003077
     32 H13         1.0770   -7.1390   -0.1750 hc        1 MOL      0.071255
     33 H14         2.8710   -7.0810   -0.1910 hc        1 MOL      0.071255
     34 H15         2.0270   -7.4640    1.2890 hc        1 MOL      0.071255
     35 H16        -0.7930   -5.9030    0.5890 hc        1 MOL      0.016031
     36 H17        -0.2810   -7.1430    1.6920 hc        1 MOL      0.016031
     37 H18        -1.3040   -5.8030    2.2800 hc        1 MOL      0.016031
     38 N3          4.4140   -3.8780   -0.7830 n         1 MOL     -0.179588
     39 C13         5.2630   -3.7570   -1.9490 c3        1 MOL     -0.052484
     40 C14         6.6120   -3.1520   -1.6220 c         1 MOL      0.430533
     41 O6          7.5210   -3.3830   -2.4220 o         1 MOL     -0.563330
     42 C15         4.6550   -2.7330   -3.0030 c3        1 MOL     -0.039592
     43 C16         3.1470   -2.7300   -3.2080 c         1 MOL      0.658654
     44 O7          2.7010   -3.2850   -4.2010 o         1 MOL     -0.683421
     45 O8          2.4210   -2.1130   -2.4250 o         1 MOL     -0.683421
     46 H19         3.8720   -3.0820   -0.4730 hn        1 MOL      0.160493
     47 H20         5.3830   -4.7200   -2.4560 h1        1 MOL      0.095452
     48 H21         5.1880   -2.9420   -3.9340 hc        1 MOL      0.013355
     49 H22         5.0980   -1.8290   -2.5980 hc        1 MOL      0.013355
     50 N4          6.7230   -2.3290   -0.6220 n         1 MOL     -0.161436
     51 C17         7.9730   -1.6200   -0.3280 c3        1 MOL     -0.226434
     52 C18         8.2930   -0.3370   -1.1160 c         1 MOL      0.445144
     53 O9          9.4440    0.1710   -1.1810 o         1 MOL     -0.542334
     54 H23         5.8500   -2.0960   -0.1770 hn        1 MOL      0.166096
     55 H24         8.7790   -2.3540   -0.3460 h1        1 MOL      0.122507
     56 H25         7.9330   -1.2610    0.7090 h1        1 MOL      0.122507
     57 N5          7.2080    0.1740   -1.7470 n         1 MOL     -0.236249
     58 C19         7.1780    1.5320   -2.2870 c3        1 MOL      0.047813
     59 C20         7.3160    2.6280   -1.2150 c         1 MOL      0.413748
     60 O10         7.9590    3.6340   -1.4700 o         1 MOL     -0.576494
     61 C21         5.8170    1.8920   -3.0280 c3        1 MOL     -0.303391
     62 C22         4.4640    1.3940   -2.4190 c         1 MOL      0.731261
     63 O11         3.8420    0.5110   -3.0420 o         1 MOL     -0.746380
     64 O12         4.0120    1.7560   -1.2780 o         1 MOL     -0.746380
     65 H26         6.4070   -0.4320   -1.8260 hn        1 MOL      0.251288
     66 H27         7.9470    1.6750   -3.0580 h1        1 MOL      0.070441
     67 H28         5.8830    1.4550   -4.0290 hc        1 MOL      0.077823
     68 H29         5.6410    2.9650   -3.1000 hc        1 MOL      0.077823
     69 N6          6.7430    2.3690   -0.0640 n         1 MOL     -0.033575
     70 C23         6.8030    3.1780    1.1150 c3        1 MOL     -0.256995
     71 C24         5.5090    3.9200    1.4830 c         1 MOL      0.624919
     72 O13         5.6910    4.8470    2.2960 o         1 MOL     -0.617415
     73 H30         6.1760    1.5270   -0.0200 hn        1 MOL      0.173596
     74 H31         7.6040    3.8560    0.8420 h1        1 MOL      0.102337
     75 H32         7.0080    2.6360    2.0350 h1        1 MOL      0.102337
     76 N7          4.4200    3.5950    0.8430 n         1 MOL     -0.431023
     77 C25         3.1140    4.2760    1.0620 c3        1 MOL      0.056129
     78 C26         1.9480    3.2260    1.0630 c         1 MOL      0.771111
     79 O14         2.0760    2.1220    0.5530 o         1 MOL     -0.676270
     80 C27         2.7840    5.3530    0.0150 c3        1 MOL      0.131708
     81 C28         3.4390    6.7230    0.0020 c3        1 MOL     -0.406051
     82 C29         2.7530    7.6720   -1.0410 c         1 MOL      0.771315
     83 N8          2.7890    7.4820   -2.3410 n         1 MOL     -0.898468
     84 O15         2.1870    8.6120   -0.6090 o         1 MOL     -0.584893
     85 H33         4.4880    2.7790    0.2440 hn        1 MOL      0.243068
     86 H34         3.0590    4.7390    2.0500 h1        1 MOL      0.028602
     87 H35         1.7030    5.4580    0.1170 hc        1 MOL     -0.019142
     88 H36         3.0130    4.9780   -0.9810 hc        1 MOL     -0.019142
     89 H37         4.4710    6.5600   -0.3070 hc        1 MOL      0.120160
     90 H38         3.4010    7.0740    1.0330 hc        1 MOL      0.120160
     91 H39         3.2090    6.6190   -2.6270 hn        1 MOL      0.395756
     92 H40         2.2500    8.1040   -2.9360 hn        1 MOL      0.395756
     93 N9          0.8160    3.6540    1.6790 n         1 MOL     -0.662371
     94 C30        -0.3690    2.7820    1.9200 c3        1 MOL     -0.048454
     95 C31        -1.4470    3.1620    0.9290 c         1 MOL      0.636113
     96 O16        -1.9590    4.2540    0.9870 o         1 MOL     -0.611230
     97 C32        -0.8630    2.8510    3.4010 c3        1 MOL      0.206405
     98 C33        -1.8250    1.6890    3.5920 c3        1 MOL     -0.334325
     99 C34         0.3550    2.5270    4.3370 c3        1 MOL     -0.334325
    100 H41         0.8520    4.6150    1.9690 hn        1 MOL      0.339515
    101 H42        -0.1070    1.7620    1.6490 h1        1 MOL      0.234344
    102 H43        -1.5180    3.6830    3.6610 hc        1 MOL      0.008860
    103 H44        -2.6440    1.7400    2.8700 hc        1 MOL      0.074364
    104 H45        -1.2540    0.7770    3.4090 hc        1 MOL      0.074364
    105 H46        -2.1620    1.6690    4.6290 hc        1 MOL      0.074364
    106 H47         0.9100    1.6380    4.0300 hc        1 MOL      0.074364
    107 H48         1.0650    3.3610    4.3770 hc        1 MOL      0.074364
    108 H49        -0.0280    2.2740    5.3290 hc        1 MOL      0.074364
    109 N10        -1.8680    2.2240    0.0520 n         1 MOL     -0.319304
    110 C35        -2.9110    2.4080   -0.9970 c3        1 MOL      0.073939
    111 C36        -4.2050    1.8720   -0.3790 c         1 MOL      0.378946
    112 O17        -4.1490    1.1310    0.5750 o         1 MOL     -0.245084
    113 C37        -2.6020    1.7420   -2.3360 c3        1 MOL     -0.531546
    114 C38        -2.9630    0.2710   -2.4280 c         1 MOL      0.724964
    115 N11        -2.2500   -0.5890   -1.8310 n         1 MOL     -0.574948
    116 O18        -3.9570   -0.0420   -2.9710 o         1 MOL     -0.592897
    117 H50        -1.5490    1.2790    0.1890 hn        1 MOL      0.128054
    118 H51        -3.0990    3.4460   -1.2650 h1        1 MOL      0.080377
    119 H52        -1.5220    1.7750   -2.4140 hc        1 MOL      0.173657
    120 H53        -3.0700    2.3470   -3.1160 hc        1 MOL      0.173657
    121 H54        -1.5440   -0.2140   -1.2150 hn        1 MOL      0.329204
    122 H55        -2.3870   -1.5790   -1.9020 hn        1 MOL      0.329204
    123 N12        -5.3460    2.1590   -1.0840 n         1 MOL     -0.550978
    124 C39        -6.6020    1.8800   -0.3720 c3        1 MOL      0.156824
    125 C40        -6.8730    0.3430   -0.1800 c         1 MOL      0.604759
    126 O19        -7.3940   -0.0500    0.8430 o         1 MOL     -0.504240
    127 C41        -7.8070    2.4780   -1.1460 c3        1 MOL     -0.405089
    128 C42        -9.1840    2.1220   -0.6480 ca        1 MOL      0.236520
    129 C43        -9.6640    2.7940    0.5250 ca        1 MOL     -0.255671
    130 C44       -10.1110    1.3500   -1.3840 ca        1 MOL     -0.255671
    131 C45       -10.9170    2.5270    1.0830 ca        1 MOL     -0.227607
    132 C46       -11.4380    1.1970   -0.9600 ca        1 MOL     -0.227607
    133 C47       -11.7950    1.7760    0.2700 ca        1 MOL      0.308022
    134 O20       -13.0540    1.4490    0.6630 oh        1 MOL     -0.506038
    135 H56        -5.3950    2.6100   -1.9900 hn        1 MOL      0.344746
    136 H57        -6.5620    2.3920    0.5920 h1        1 MOL      0.073054
    137 H58        -7.6620    2.1900   -2.1840 hc        1 MOL      0.112419
    138 H59        -7.6960    3.5480   -1.3000 hc        1 MOL      0.112419
    139 H60        -9.0150    3.4820    1.0560 ha        1 MOL      0.152802
    140 H61        -9.8630    0.8950   -2.3290 ha        1 MOL      0.152802
    141 H62       -11.1660    2.9380    2.0490 ha        1 MOL      0.159540
    142 H63       -12.0380    0.4880   -1.5030 ha        1 MOL      0.159540
    143 H64       -13.5170    1.0730   -0.0770 ho        1 MOL      0.349262
    144 N13        -6.5240   -0.5010   -1.1590 n         1 MOL     -0.347014
    145 C48        -6.5950   -1.9320   -0.9760 c3        1 MOL     -0.063728
    146 C49        -5.6570   -2.4550    0.1270 c         1 MOL      0.256645
    147 O21        -5.9920   -3.4370    0.7580 o         1 MOL     -0.496245
    148 C50        -6.4050   -2.6710   -2.2830 c3        1 MOL      0.035154
    149 C51        -7.5470   -2.6220   -3.3160 c3        1 MOL     -0.024871
    150 C52        -6.9750   -3.1250   -4.6250 c         1 MOL      0.595052
    151 O22        -7.1880   -4.3280   -4.9280 o         1 MOL     -0.708325
    152 O23        -6.2380   -2.2900   -5.2070 o         1 MOL     -0.708325
    153 H65        -6.0880   -0.1490   -2.0080 hn        1 MOL      0.270735
    154 H66        -7.6250   -2.1410   -0.6780 h1        1 MOL      0.098801
    155 H67        -6.4350   -3.7470   -2.1220 hc        1 MOL      0.048593
    156 H68        -5.4410   -2.5160   -2.7640 hc        1 MOL      0.048593
    157 H69        -7.8880   -1.5820   -3.3970 hc        1 MOL     -0.053288
    158 H70        -8.3460   -3.3150   -3.0560 hc        1 MOL     -0.053288
    159 N14        -4.5580   -1.7640    0.4440 n         1 MOL      0.041856
    160 C53        -3.7450   -2.1450    1.6500 c3        1 MOL     -0.164009
    161 C54        -4.4460   -1.6310    2.9380 c         1 MOL      0.502057
    162 O24        -4.1750   -2.1460    3.9940 o         1 MOL     -0.587583
    163 C55        -2.3380   -1.5240    1.6890 c3        1 MOL      0.157313
    164 C56        -1.2900   -2.2320    0.7950 c3        1 MOL     -0.055231
    165 C57        -0.0420   -1.3340    0.4880 c         1 MOL      0.771140
    166 O25         0.9840   -1.9380    0.0770 o         1 MOL     -0.812933
    167 O26        -0.1590   -0.0720    0.3130 o         1 MOL     -0.812933
    168 H71        -4.2530   -0.9930   -0.1300 hn        1 MOL     -0.047515
    169 H72        -3.6070   -3.2230    1.6430 h1        1 MOL      0.108095
    170 H73        -1.9530   -1.5960    2.7110 hc        1 MOL      0.006962
    171 H74        -2.2740   -0.4420    1.5430 hc        1 MOL      0.006962
    172 H75        -1.7700   -2.4340   -0.1700 hc        1 MOL      0.009178
    173 H76        -1.0300   -3.1820    1.2700 hc        1 MOL      0.009178
    174 N15        -5.2770   -0.6440    2.8230 n         1 MOL      0.007961
    175 C58        -6.1490   -0.1590    3.9860 c3        1 MOL     -0.418434
    176 H77        -5.6930   -0.4570    4.9300 h1        1 MOL      0.140411
    177 H78        -6.2330    0.9270    3.9500 h1        1 MOL      0.140411
    178 H79        -7.1420   -0.6040    3.9070 h1        1 MOL      0.140411
    179 H80        -5.3960   -0.1560    1.9540 hn        1 MOL     -0.031680
    180 Ca1         2.0140    0.0560   -1.1840 Ca        1 MOL      1.811337
    181 O27         1.2300    2.4020   -2.5270 oh        1 MOL     -0.864295
    182 H81         1.6830    3.2390   -2.4620 ho        1 MOL      0.405745
    183 H82         1.3520    2.1360   -3.4400 ho        1 MOL      0.405745
    184 O28         0.4420   -0.5830   -3.4400 oh        1 MOL     -0.864295
    185 H83        -0.1360   -0.6550   -4.2030 ho        1 MOL      0.405745
    186 H84         1.1120   -1.2340   -3.5840 ho        1 MOL      0.405745
@<TRIPOS>BOND
     1    1    2 1   
     2    1    4 1   
     3    1    5 1   
     4    1    6 1   
     5    2    3 2   
     6    2    7 1   
     7    7    8 1   
     8    7   15 1   
     9    8    9 1   
    10    8   11 1   
    11    8   16 1   
    12    9   10 2   
    13    9   19 1   
    14   11   12 1   
    15   11   17 1   
    16   11   18 1   
    17   12   13 1   
    18   12   14 1   
    19   19   20 1   
    20   19   27 1   
    21   20   21 1   
    22   20   23 1   
    23   20   28 1   
    24   21   22 2   
    25   21   38 1   
    26   23   24 1   
    27   23   25 1   
    28   23   29 1   
    29   24   26 1   
    30   24   30 1   
    31   24   31 1   
    32   25   32 1   
    33   25   33 1   
    34   25   34 1   
    35   26   35 1   
    36   26   36 1   
    37   26   37 1   
    38   38   39 1   
    39   38   46 1   
    40   39   40 1   
    41   39   42 1   
    42   39   47 1   
    43   40   41 2   
    44   40   50 1   
    45   42   43 1   
    46   42   48 1   
    47   42   49 1   
    48   43   44 1   
    49   43   45 1   
    50   50   51 1   
    51   50   54 1   
    52   51   52 1   
    53   51   55 1   
    54   51   56 1   
    55   52   53 2   
    56   52   57 1   
    57   57   58 1   
    58   57   65 1   
    59   58   59 1   
    60   58   61 1   
    61   58   66 1   
    62   59   60 2   
    63   59   69 1   
    64   61   62 1   
    65   61   67 1   
    66   61   68 1   
    67   62   63 1   
    68   62   64 1   
    69   69   70 1   
    70   69   73 1   
    71   70   71 1   
    72   70   74 1   
    73   70   75 1   
    74   71   72 2   
    75   71   76 1   
    76   76   77 1   
    77   76   85 1   
    78   77   78 1   
    79   77   80 1   
    80   77   86 1   
    81   78   79 2   
    82   78   93 1   
    83   80   81 1   
    84   80   87 1   
    85   80   88 1   
    86   81   82 1   
    87   81   89 1   
    88   81   90 1   
    89   82   83 1   
    90   82   84 2   
    91   83   91 1   
    92   83   92 1   
    93   93   94 1   
    94   93  100 1   
    95   94   95 1   
    96   94   97 1   
    97   94  101 1   
    98   95   96 2   
    99   95  109 1   
   100   97   98 1   
   101   97   99 1   
   102   97  102 1   
   103   98  103 1   
   104   98  104 1   
   105   98  105 1   
   106   99  106 1   
   107   99  107 1   
   108   99  108 1   
   109  109  110 1   
   110  109  117 1   
   111  110  111 1   
   112  110  113 1   
   113  110  118 1   
   114  111  112 2   
   115  111  123 1   
   116  113  114 1   
   117  113  119 1   
   118  113  120 1   
   119  114  115 1   
   120  114  116 2   
   121  115  121 1   
   122  115  122 1   
   123  123  124 1   
   124  123  135 1   
   125  124  125 1   
   126  124  127 1   
   127  124  136 1   
   128  125  126 2   
   129  125  144 1   
   130  127  128 1   
   131  127  137 1   
   132  127  138 1   
   133  128  129 ar  
   134  128  130 ar  
   135  129  131 ar  
   136  129  139 1   
   137  130  132 ar  
   138  130  140 1   
   139  131  133 ar  
   140  131  141 1   
   141  132  133 ar  
   142  132  142 1   
   143  133  134 1   
   144  134  143 1   
   145  144  145 1   
   146  144  153 1   
   147  145  146 1   
   148  145  148 1   
   149  145  154 1   
   150  146  147 2   
   151  146  159 1   
   152  148  149 1   
   153  148  155 1   
   154  148  156 1   
   155  149  150 1   
   156  149  157 1   
   157  149  158 1   
   158  150  151 1   
   159  150  152 1   
   160  159  160 1   
   161  159  168 1   
   162  160  161 1   
   163  160  163 1   
   164  160  169 1   
   165  161  162 2   
   166  161  174 1   
   167  163  164 1   
   168  163  170 1   
   169  163  171 1   
   170  164  165 1   
   171  164  172 1   
   172  164  173 1   
   173  165  166 1   
   174  165  167 1   
   175  174  175 1   
   176  174  179 1   
   177  175  176 1   
   178  175  177 1   
   179  175  178 1   
   180  181  182 1   
   181  181  183 1   
   182  184  185 1   
   183  184  186 1   
@<TRIPOS>SUBSTRUCTURE
     1 MOL         1 TEMP              0 ****  ****    0 ROOT
