@<TRIPOS>MOLECULE
MOL
  172   171     1     0     0
SMALL
resp


@<TRIPOS>ATOM
      1 C1          0.0010   -2.7280    5.9980 c3        1 MOL     -0.455452
      2 C2          0.5060   -2.6590    4.5520 c         1 MOL      0.632245
      3 O1         -0.0860   -3.2470    3.6290 o         1 MOL     -0.547683
      4 H1         -0.1030   -3.7710    6.2960 hc        1 MOL      0.120064
      5 H2          0.7120   -2.2310    6.6570 hc        1 MOL      0.120064
      6 H3         -0.9680   -2.2340    6.0690 hc        1 MOL      0.120064
      7 N1          1.7040   -2.1190    4.3090 n         1 MOL     -0.436995
      8 C3          2.2670   -1.9360    3.0190 c3        1 MOL      0.126750
      9 C4          2.8350   -3.2870    2.3940 c         1 MOL      0.451541
     10 O2          3.6310   -4.0480    2.9400 o         1 MOL     -0.571687
     11 C5          3.3880   -0.9130    3.0170 c3        1 MOL     -0.260858
     12 C6          4.2890   -0.8890    1.8150 c         1 MOL      0.725811
     13 O3          3.7450   -0.8570    0.7160 o         1 MOL     -0.688592
     14 O4          5.5200   -0.8630    1.9950 o         1 MOL     -0.688592
     15 H4          2.1860   -1.7430    5.1100 hn        1 MOL      0.277837
     16 H5          1.5350   -1.5010    2.3400 h1        1 MOL      0.004867
     17 H6          3.9290   -0.9750    3.9670 hc        1 MOL      0.044164
     18 H7          2.9130    0.0530    3.1810 hc        1 MOL      0.044164
     19 N2          2.2400   -3.6630    1.2900 n         1 MOL     -0.155612
     20 C7          2.0860   -5.0550    0.6970 c3        1 MOL      0.065431
     21 C8          2.9590   -5.2430   -0.6330 c         1 MOL      0.542255
     22 O5          3.0370   -6.3980   -1.1900 o         1 MOL     -0.576642
     23 C9          0.6030   -5.3980    0.4480 c3        1 MOL     -0.233900
     24 H8          1.5020   -3.0460    0.9940 hn        1 MOL      0.307741
     25 H9          2.5790   -5.7170    1.4040 h1        1 MOL      0.039828
     26 H10         0.2610   -4.8200   -0.4040 hc        1 MOL      0.063112
     27 H11         0.5530   -6.4530    0.1630 hc        1 MOL      0.063112
     28 H12        -0.0070   -5.1560    1.3270 hc        1 MOL      0.063112
     29 N3          3.6770   -4.1330   -0.9750 n         1 MOL     -0.474535
     30 C10         4.6030   -4.0970   -2.1300 c3        1 MOL      0.209584
     31 C11         5.9570   -3.4750   -1.7510 c         1 MOL      0.414527
     32 O6          6.9490   -3.7380   -2.4120 o         1 MOL     -0.552556
     33 C12         4.0040   -3.2370   -3.2450 c3        1 MOL     -0.117313
     34 C13         3.5020   -1.8640   -2.8680 c         1 MOL      0.778732
     35 O7          2.3480   -1.5360   -3.0640 o         1 MOL     -0.765105
     36 O8          4.2160   -1.0750   -2.2380 o         1 MOL     -0.765105
     37 H13         3.4980   -3.3610   -0.3540 hn        1 MOL      0.123539
     38 H14         4.7860   -5.0600   -2.6160 h1        1 MOL      0.053473
     39 H15         3.2250   -3.9130   -3.5990 hc        1 MOL      0.015704
     40 H16         4.7570   -3.1910   -4.0360 hc        1 MOL      0.015704
     41 N4          6.0830   -2.8110   -0.5670 n         1 MOL     -0.285982
     42 C14         7.3220   -2.3520    0.0460 c3        1 MOL     -0.201167
     43 C15         7.6030   -0.8850   -0.1640 c         1 MOL      0.651952
     44 O9          8.6770   -0.4740    0.2480 o         1 MOL     -0.635901
     45 H17         5.2440   -2.5570   -0.0720 hn        1 MOL      0.272631
     46 H18         8.0960   -3.0450   -0.2880 h1        1 MOL      0.116182
     47 H19         7.3000   -2.4120    1.1280 h1        1 MOL      0.116182
     48 N5          6.7680   -0.0880   -0.8580 n         1 MOL     -0.409411
     49 C16         7.0990    1.2630   -1.2390 c3        1 MOL      0.010036
     50 C17         6.8220    2.3800   -0.2690 c         1 MOL      0.479632
     51 O10         7.0020    3.5060   -0.6490 o         1 MOL     -0.528883
     52 C18         6.4500    1.5410   -2.5830 c3        1 MOL     -0.197013
     53 C19         4.9240    1.7930   -2.6130 c         1 MOL      0.718389
     54 N6          4.4070    2.0740   -3.7750 n         1 MOL     -0.840256
     55 O11         4.2200    1.7770   -1.5840 o         1 MOL     -0.571100
     56 H20         5.8770   -0.4660   -1.1440 hn        1 MOL      0.275910
     57 H21         8.1880    1.3520   -1.2920 h1        1 MOL      0.116698
     58 H22         6.8050    0.7570   -3.2580 hc        1 MOL      0.063284
     59 H23         7.0440    2.3950   -2.9250 hc        1 MOL      0.063284
     60 H24         4.8730    1.8690   -4.6470 hn        1 MOL      0.378214
     61 H25         3.5440    2.5810   -3.8340 hn        1 MOL      0.378214
     62 N7          6.3970    2.2210    1.0240 n         1 MOL     -0.357130
     63 C20         6.1820    3.3720    1.9670 c3        1 MOL     -0.165368
     64 C21         4.9760    4.2270    1.7910 c         1 MOL      0.525712
     65 O12         5.0560    5.2940    2.3770 o         1 MOL     -0.566330
     66 H26         6.2400    1.3030    1.4310 hn        1 MOL      0.311675
     67 H27         7.0460    4.0390    1.9410 h1        1 MOL      0.108870
     68 H28         6.2390    2.8880    2.9470 h1        1 MOL      0.108870
     69 N8          3.9820    3.8630    0.9430 n         1 MOL     -0.239360
     70 C22         2.6290    4.5030    0.6240 c3        1 MOL     -0.070548
     71 C23         1.4960    3.4690    0.7470 c         1 MOL      0.581596
     72 O13         1.7740    2.2960    0.5090 o         1 MOL     -0.596803
     73 C24         2.8000    5.1450   -0.7420 c3        1 MOL      0.536713
     74 C25         1.4850    5.7920   -1.2990 c3        1 MOL     -0.478687
     75 O14         3.7240    6.1280   -0.9510 oh        1 MOL     -0.616377
     76 H29         4.0750    2.9840    0.4570 hn        1 MOL      0.146839
     77 H30         2.4370    5.3370    1.2970 h1        1 MOL      0.058951
     78 H31         3.1160    4.3250   -1.3850 h1        1 MOL     -0.004144
     79 H32         3.4560    6.4620   -1.8020 ho        1 MOL      0.355420
     80 H33         0.7950    4.9760   -1.5260 hc        1 MOL      0.104551
     81 H34         1.0120    6.3210   -0.4790 hc        1 MOL      0.104551
     82 H35         1.5440    6.4460   -2.1680 hc        1 MOL      0.104551
     83 N9          0.2700    3.9710    1.0090 n         1 MOL     -0.514047
     84 C26        -0.9110    3.0550    1.1940 c3        1 MOL      0.021482
     85 C27        -1.6880    2.9930   -0.0950 c         1 MOL      0.507324
     86 O15        -2.1550    4.0180   -0.5750 o         1 MOL     -0.603544
     87 C28        -1.8850    3.5240    2.3850 c3        1 MOL      0.196040
     88 C29        -1.1770    3.7780    3.6990 c3        1 MOL      0.078319
     89 C30        -3.1670    2.7130    2.5300 c3        1 MOL     -0.066295
     90 C31        -1.9200    4.4420    4.8920 c3        1 MOL     -0.293342
     91 H36         0.0600    4.9560    1.0840 hn        1 MOL      0.312343
     92 H37        -0.7100    2.0190    1.4740 h1        1 MOL      0.074755
     93 H38        -2.2410    4.4680    1.9890 hc        1 MOL     -0.057294
     94 H39        -0.2760    4.3720    3.5400 hc        1 MOL     -0.013537
     95 H40        -0.7900    2.8220    4.0370 hc        1 MOL     -0.013537
     96 H41        -3.8620    3.1290    3.2650 hc        1 MOL     -0.001731
     97 H42        -3.6480    2.8270    1.5660 hc        1 MOL     -0.001731
     98 H43        -2.8800    1.6840    2.7530 hc        1 MOL     -0.001731
     99 H44        -1.4410    4.3460    5.8680 hc        1 MOL      0.067792
    100 H45        -2.1040    5.4540    4.5160 hc        1 MOL      0.067792
    101 H46        -2.8440    3.9030    5.0570 hc        1 MOL      0.067792
    102 N10        -1.9630    1.8170   -0.6450 n         1 MOL     -0.175519
    103 C32        -3.0110    1.5060   -1.6870 c3        1 MOL     -0.054186
    104 C33        -4.3860    1.0880   -1.1680 c         1 MOL      0.659768
    105 O16        -4.4680    0.6060   -0.0480 o         1 MOL     -0.530430
    106 C34        -2.5370    0.4330   -2.7090 c3        1 MOL     -0.257438
    107 C35        -1.1090    0.7220   -3.2960 c         1 MOL      0.773232
    108 O17        -0.0970    0.3930   -2.6870 o         1 MOL     -0.702076
    109 O18        -1.0360    1.1260   -4.4840 o         1 MOL     -0.702076
    110 H47        -1.5740    1.0370   -0.1380 hn        1 MOL      0.213663
    111 H48        -3.1730    2.4260   -2.2550 h1        1 MOL      0.064708
    112 H49        -3.2570    0.4480   -3.5300 hc        1 MOL      0.073315
    113 H50        -2.5280   -0.5210   -2.1820 hc        1 MOL      0.073315
    114 N11        -5.4560    1.2750   -1.9230 n         1 MOL     -0.797421
    115 C36        -6.7450    0.8880   -1.3170 c3        1 MOL      0.539266
    116 C37        -6.7970   -0.5200   -0.8080 c         1 MOL      0.211898
    117 O19        -7.3650   -0.6610    0.2630 o         1 MOL     -0.476427
    118 C38        -7.9940    1.3060   -2.1790 c3        1 MOL     -0.375637
    119 C39        -9.3620    1.1800   -1.4910 ca        1 MOL      0.067538
    120 C40       -10.4380    0.5510   -2.2140 ca        1 MOL     -0.050474
    121 C41        -9.5980    1.7220   -0.2300 ca        1 MOL     -0.050474
    122 C42       -11.6980    0.4960   -1.6680 ca        1 MOL     -0.208201
    123 C43       -10.8960    1.8200    0.2910 ca        1 MOL     -0.208201
    124 C44       -11.9460    1.1490   -0.4100 ca        1 MOL     -0.058868
    125 H51        -5.3800    1.6270   -2.8690 hn        1 MOL      0.385470
    126 H52        -6.8150    1.4810   -0.3970 h1        1 MOL      0.050831
    127 H53        -8.0270    0.6890   -3.0890 hc        1 MOL      0.099536
    128 H54        -7.7630    2.3280   -2.4700 hc        1 MOL      0.099536
    129 H55       -10.3980    0.1670   -3.2190 ha        1 MOL      0.087828
    130 H56        -8.7670    2.1870    0.2710 ha        1 MOL      0.087828
    131 H57       -12.4960   -0.0230   -2.1660 ha        1 MOL      0.137065
    132 H58       -11.0020    2.2220    1.2970 ha        1 MOL      0.137065
    133 H59       -12.9210    1.1980    0.0380 ha        1 MOL      0.091101
    134 N12        -6.2490   -1.5150   -1.5330 n         1 MOL     -0.038677
    135 C45        -6.1660   -2.9200   -1.0700 c3        1 MOL     -0.061775
    136 C46        -5.3200   -3.0620    0.2160 c         1 MOL      0.285759
    137 O20        -5.4600   -4.0330    0.9680 o         1 MOL     -0.528012
    138 C47        -5.4150   -3.6830   -2.2550 c3        1 MOL     -0.064460
    139 C48        -5.7630   -2.8730   -3.4780 c3        1 MOL      0.011998
    140 C49        -5.7740   -1.4630   -2.9110 c3        1 MOL     -0.020131
    141 H60        -7.1570   -3.3100   -0.8200 h1        1 MOL      0.097569
    142 H61        -4.3420   -3.6740   -2.0900 hc        1 MOL      0.060148
    143 H62        -5.6880   -4.7330   -2.3810 hc        1 MOL      0.060148
    144 H63        -5.0690   -2.9120   -4.3250 hc        1 MOL      0.015712
    145 H64        -6.7610   -3.1230   -3.8080 hc        1 MOL      0.015712
    146 H65        -4.7270   -1.1660   -2.8410 h1        1 MOL      0.025542
    147 H66        -6.3760   -0.7670   -3.4890 h1        1 MOL      0.025542
    148 N13        -4.5290   -2.0880    0.6250 n         1 MOL      0.058158
    149 C50        -3.7680   -1.9380    1.9040 c3        1 MOL     -0.246365
    150 C51        -4.6290   -1.1870    3.0120 c         1 MOL      0.548810
    151 O21        -4.4570   -1.4830    4.2250 o         1 MOL     -0.584305
    152 C52        -2.3890   -1.2230    1.6330 c3        1 MOL      0.072095
    153 C53        -1.6230   -1.9850    0.6020 c3        1 MOL     -0.108897
    154 C54        -0.3160   -1.3280    0.0980 c         1 MOL      0.587180
    155 O22         0.6140   -1.9920   -0.4470 o         1 MOL     -0.678017
    156 O23        -0.0650   -0.0920    0.3010 o         1 MOL     -0.678017
    157 H67        -4.4170   -1.2980    0.0160 hn        1 MOL      0.101736
    158 H68        -3.5410   -2.9160    2.3300 h1        1 MOL      0.136268
    159 H69        -1.7750   -1.1200    2.5280 hc        1 MOL      0.021999
    160 H70        -2.6110   -0.2110    1.3010 hc        1 MOL      0.021999
    161 H71        -2.2280   -2.1400   -0.2940 hc        1 MOL      0.031043
    162 H72        -1.2950   -2.8800    1.1200 hc        1 MOL      0.031043
    163 N14        -5.4360   -0.2380    2.6170 n         1 MOL     -0.168970
    164 C55        -6.5790    0.2230    3.4950 c3        1 MOL     -0.259934
    165 H73        -6.5890   -0.3610    4.4160 h1        1 MOL      0.100641
    166 H74        -6.4500    1.2790    3.7360 h1        1 MOL      0.100641
    167 H75        -7.5230    0.0840    2.9680 h1        1 MOL      0.100641
    168 H76        -5.4620    0.1340    1.6710 hn        1 MOL      0.189626
    169 Ca1         2.0390    0.1550   -1.1220 Ca        1 MOL      1.738886
    170 O24         1.5640    2.5870   -2.2610 oh        1 MOL     -0.814014
    171 H77         0.8880    2.0500   -2.6620 ho        1 MOL      0.361523
    172 H78         1.8420    3.1900   -2.9410 ho        1 MOL      0.361523
@<TRIPOS>BOND
     1    1    2 1   
     2    1    4 1   
     3    1    5 1   
     4    1    6 1   
     5    2    3 2   
     6    2    7 1   
     7    7    8 1   
     8    7   15 1   
     9    8    9 1   
    10    8   11 1   
    11    8   16 1   
    12    9   10 2   
    13    9   19 1   
    14   11   12 1   
    15   11   17 1   
    16   11   18 1   
    17   12   13 1   
    18   12   14 1   
    19   19   20 1   
    20   19   24 1   
    21   20   21 1   
    22   20   23 1   
    23   20   25 1   
    24   21   22 2   
    25   21   29 1   
    26   23   26 1   
    27   23   27 1   
    28   23   28 1   
    29   29   30 1   
    30   29   37 1   
    31   30   31 1   
    32   30   33 1   
    33   30   38 1   
    34   31   32 2   
    35   31   41 1   
    36   33   34 1   
    37   33   39 1   
    38   33   40 1   
    39   34   35 1   
    40   34   36 1   
    41   41   42 1   
    42   41   45 1   
    43   42   43 1   
    44   42   46 1   
    45   42   47 1   
    46   43   44 2   
    47   43   48 1   
    48   48   49 1   
    49   48   56 1   
    50   49   50 1   
    51   49   52 1   
    52   49   57 1   
    53   50   51 2   
    54   50   62 1   
    55   52   53 1   
    56   52   58 1   
    57   52   59 1   
    58   53   54 1   
    59   53   55 2   
    60   54   60 1   
    61   54   61 1   
    62   62   63 1   
    63   62   66 1   
    64   63   64 1   
    65   63   67 1   
    66   63   68 1   
    67   64   65 2   
    68   64   69 1   
    69   69   70 1   
    70   69   76 1   
    71   70   71 1   
    72   70   73 1   
    73   70   77 1   
    74   71   72 2   
    75   71   83 1   
    76   73   74 1   
    77   73   75 1   
    78   73   78 1   
    79   74   80 1   
    80   74   81 1   
    81   74   82 1   
    82   75   79 1   
    83   83   84 1   
    84   83   91 1   
    85   84   85 1   
    86   84   87 1   
    87   84   92 1   
    88   85   86 2   
    89   85  102 1   
    90   87   88 1   
    91   87   89 1   
    92   87   93 1   
    93   88   90 1   
    94   88   94 1   
    95   88   95 1   
    96   89   96 1   
    97   89   97 1   
    98   89   98 1   
    99   90   99 1   
   100   90  100 1   
   101   90  101 1   
   102  102  103 1   
   103  102  110 1   
   104  103  104 1   
   105  103  106 1   
   106  103  111 1   
   107  104  105 2   
   108  104  114 1   
   109  106  107 1   
   110  106  112 1   
   111  106  113 1   
   112  107  108 1   
   113  107  109 1   
   114  114  115 1   
   115  114  125 1   
   116  115  116 1   
   117  115  118 1   
   118  115  126 1   
   119  116  117 2   
   120  116  134 1   
   121  118  119 1   
   122  118  127 1   
   123  118  128 1   
   124  119  120 ar  
   125  119  121 ar  
   126  120  122 ar  
   127  120  129 1   
   128  121  123 ar  
   129  121  130 1   
   130  122  124 ar  
   131  122  131 1   
   132  123  124 ar  
   133  123  132 1   
   134  124  133 1   
   135  134  135 1   
   136  134  140 1   
   137  135  136 1   
   138  135  138 1   
   139  135  141 1   
   140  136  137 2   
   141  136  148 1   
   142  138  139 1   
   143  138  142 1   
   144  138  143 1   
   145  139  140 1   
   146  139  144 1   
   147  139  145 1   
   148  140  146 1   
   149  140  147 1   
   150  148  149 1   
   151  148  157 1   
   152  149  150 1   
   153  149  152 1   
   154  149  158 1   
   155  150  151 2   
   156  150  163 1   
   157  152  153 1   
   158  152  159 1   
   159  152  160 1   
   160  153  154 1   
   161  153  161 1   
   162  153  162 1   
   163  154  155 1   
   164  154  156 1   
   165  163  164 1   
   166  163  168 1   
   167  164  165 1   
   168  164  166 1   
   169  164  167 1   
   170  170  171 1   
   171  170  172 1   
@<TRIPOS>SUBSTRUCTURE
     1 MOL         1 TEMP              0 ****  ****    0 ROOT
