@<TRIPOS>MOLECULE
MOL
  175   173     1     0     0
SMALL
resp


@<TRIPOS>ATOM
      1 C1         -0.0040    3.8840    5.8200 c3        1 MOL     -0.403069
      2 C2         -0.4190    3.7270    4.3650 c         1 MOL      0.763083
      3 O1          0.3770    3.3940    3.4900 o         1 MOL     -0.581824
      4 H1         -0.7660    3.4470    6.4640 hc        1 MOL      0.100566
      5 H2          0.9460    3.3730    5.9840 hc        1 MOL      0.100566
      6 H3          0.1070    4.9420    6.0560 hc        1 MOL      0.100566
      7 N1         -1.7150    3.8030    3.9820 n         1 MOL     -0.714392
      8 C3         -2.1750    3.5600    2.6240 c3        1 MOL      0.174036
      9 C4         -2.2900    4.7810    1.7430 c         1 MOL      0.637074
     10 O2         -2.5180    5.8850    2.3040 o         1 MOL     -0.590519
     11 C5         -3.6140    2.9090    2.9150 c3        1 MOL     -0.270084
     12 C6         -4.2370    2.5750    1.5590 c         1 MOL      0.693173
     13 O3         -3.7250    1.7920    0.7300 o         1 MOL     -0.641821
     14 O4         -5.3230    3.1500    1.2820 o         1 MOL     -0.641821
     15 H4         -2.3980    4.0790    4.6740 hn        1 MOL      0.342637
     16 H5         -1.4850    2.8490    2.1830 h1        1 MOL      0.070263
     17 H6         -4.2210    3.5640    3.5360 hc        1 MOL      0.057161
     18 H7         -3.5130    2.0790    3.6110 hc        1 MOL      0.057161
     19 N2         -2.4180    4.6560    0.4220 n         1 MOL     -0.628931
     20 C7         -2.7830    5.6600   -0.5790 c3        1 MOL      0.357397
     21 C8         -3.7860    5.1120   -1.7020 c         1 MOL      0.369991
     22 O5         -4.3090    5.9840   -2.4270 o         1 MOL     -0.569308
     23 C9         -1.6180    6.4070   -1.1650 c3        1 MOL     -0.305249
     24 H8         -2.2950    3.7000    0.1070 hn        1 MOL      0.374976
     25 H9         -3.3080    6.4450   -0.0380 h1        1 MOL      0.031912
     26 H10        -1.0940    6.8440   -0.3090 hc        1 MOL      0.071970
     27 H11        -0.9980    5.8070   -1.8320 hc        1 MOL      0.071970
     28 H12        -1.9300    7.3120   -1.6910 hc        1 MOL      0.071970
     29 N3         -4.0980    3.7880   -1.7430 n         1 MOL     -0.237261
     30 C10        -4.8970    3.1810   -2.7780 c3        1 MOL      0.299896
     31 C11        -6.0490    2.3320   -2.3390 c         1 MOL      0.247607
     32 O6         -6.9150    1.9450   -3.1150 o         1 MOL     -0.574818
     33 C12        -4.0120    2.4840   -3.8640 c3        1 MOL     -0.382363
     34 C13        -2.9890    1.5270   -3.2730 c         1 MOL      0.756084
     35 O7         -3.0910    1.1720   -2.0880 o         1 MOL     -0.708819
     36 O8         -2.0040    1.2040   -4.0010 o         1 MOL     -0.708819
     37 H13        -3.4920    3.1540   -1.2520 hn        1 MOL      0.231542
     38 H14        -5.3440    3.9700   -3.3890 h1        1 MOL      0.024669
     39 H15        -3.4520    3.3150   -4.2820 hc        1 MOL      0.085951
     40 H16        -4.6850    1.9850   -4.5650 hc        1 MOL      0.085951
     41 N4         -6.0520    1.8730   -1.1020 n         1 MOL      0.143240
     42 C14        -7.1530    0.9900   -0.5610 c3        1 MOL     -0.217319
     43 C15        -7.3300   -0.4150   -1.0880 c         1 MOL      0.493981
     44 O9         -8.3640   -1.0630   -0.8800 o         1 MOL     -0.607087
     45 H17        -5.2910    2.2170   -0.5390 hn        1 MOL     -0.169814
     46 H18        -8.1070    1.5020   -0.7080 h1        1 MOL      0.112129
     47 H19        -7.1330    0.9410    0.5320 h1        1 MOL      0.112129
     48 N5         -6.2790   -0.8870   -1.7110 n         1 MOL     -0.262084
     49 C16        -6.1510   -2.2460   -2.2800 c3        1 MOL      0.114257
     50 C17        -6.0770   -3.4270   -1.2030 c         1 MOL      0.327387
     51 O10        -5.8920   -4.6110   -1.5570 o         1 MOL     -0.487897
     52 C18        -4.9100   -2.3320   -3.1590 c3        1 MOL     -0.250665
     53 C19        -3.5630   -2.2240   -2.4430 c         1 MOL      0.638111
     54 N6         -2.4840   -2.3680   -3.1840 n         1 MOL     -0.623144
     55 O11        -3.4710   -1.9390   -1.2080 o         1 MOL     -0.704536
     56 H20        -5.4780   -0.2790   -1.8260 hn        1 MOL      0.246417
     57 H21        -7.0300   -2.4640   -2.8930 h1        1 MOL      0.091869
     58 H22        -5.0210   -1.4640   -3.8140 hc        1 MOL      0.075385
     59 H23        -4.9070   -3.2530   -3.7400 hc        1 MOL      0.075385
     60 H24        -2.5470   -2.4790   -4.1900 hn        1 MOL      0.347996
     61 H25        -1.5580   -2.1830   -2.8410 hn        1 MOL      0.347996
     62 N7         -6.2430   -3.1190    0.1100 n         1 MOL     -0.179274
     63 C20        -6.2910   -4.0870    1.2050 c3        1 MOL     -0.285709
     64 C21        -4.8560   -4.4870    1.6370 c         1 MOL      0.561507
     65 O12        -4.7530   -5.2490    2.5730 o         1 MOL     -0.593118
     66 H26        -6.2860   -2.1270    0.3040 hn        1 MOL      0.246286
     67 H27        -6.8520   -4.9710    0.9030 h1        1 MOL      0.143178
     68 H28        -6.7440   -3.5720    2.0500 h1        1 MOL      0.143178
     69 N8         -3.7140   -4.0700    1.0140 n         1 MOL     -0.259979
     70 C22        -2.3260   -4.6310    1.1920 c3        1 MOL     -0.015987
     71 C23        -1.3050   -3.5280    1.5010 c         1 MOL      0.356531
     72 O13        -1.4660   -2.3530    1.0400 o         1 MOL     -0.444440
     73 C24        -1.8020   -5.3930   -0.0440 c3        1 MOL      0.346936
     74 C25        -2.4860   -6.7970   -0.1670 c3        1 MOL     -0.533668
     75 O14        -2.3160   -4.7720   -1.1710 oh        1 MOL     -0.532877
     76 H29        -3.8520   -3.3330    0.3450 hn        1 MOL      0.196132
     77 H30        -2.3040   -5.2760    2.0780 h1        1 MOL      0.079041
     78 H31        -0.7200   -5.4170   -0.0940 h1        1 MOL      0.015075
     79 H32        -2.0290   -3.8590   -1.2090 ho        1 MOL      0.361737
     80 H33        -2.2070   -7.3220    0.7450 hc        1 MOL      0.141085
     81 H34        -3.5610   -6.6920   -0.2560 hc        1 MOL      0.141085
     82 H35        -2.2090   -7.3740   -1.0490 hc        1 MOL      0.141085
     83 N9         -0.3220   -3.8730    2.2630 n         1 MOL     -0.356830
     84 C26         0.8570   -2.9590    2.2400 c3        1 MOL     -0.006274
     85 C27         1.6630   -3.1620    0.9260 c         1 MOL      0.440271
     86 O15         2.0430   -4.2840    0.5380 o         1 MOL     -0.580246
     87 C28         1.7580   -3.1100    3.4560 c3        1 MOL      0.153591
     88 C29         0.8800   -2.7900    4.6830 c3        1 MOL     -0.266208
     89 C30         2.9290   -2.1100    3.5760 c3        1 MOL     -0.235475
     90 C31         1.5420   -3.0070    6.0740 c3        1 MOL      0.043784
     91 H36        -0.1420   -4.8250    2.5440 hn        1 MOL      0.277821
     92 H37         0.4960   -1.9290    2.3070 h1        1 MOL      0.111011
     93 H38         2.1080   -4.1410    3.4540 hc        1 MOL     -0.001206
     94 H39        -0.0040   -3.3990    4.5040 hc        1 MOL      0.075104
     95 H40         0.5150   -1.7640    4.7630 hc        1 MOL      0.075104
     96 H41         3.7000   -2.5120    4.2380 hc        1 MOL      0.061941
     97 H42         3.5330   -2.0830    2.6740 hc        1 MOL      0.061941
     98 H43         2.6160   -1.1080    3.8870 hc        1 MOL      0.061941
     99 H44         1.8960   -4.0360    6.2370 hc        1 MOL     -0.005905
    100 H45         2.3830   -2.3460    6.2820 hc        1 MOL     -0.005905
    101 H46         0.8230   -2.8300    6.8770 hc        1 MOL     -0.005905
    102 N10         1.9840   -2.0260    0.2940 n         1 MOL     -0.113303
    103 C32         2.7570   -2.0080   -0.9750 c3        1 MOL      0.126326
    104 C33         4.1590   -1.5020   -0.7940 c         1 MOL      0.289560
    105 O16         4.4570   -0.8830    0.2190 o         1 MOL     -0.299950
    106 C34         2.0200   -1.1570   -2.0190 c3        1 MOL     -0.301594
    107 C35         0.5760   -1.5090   -2.4210 c         1 MOL      0.750463
    108 O17        -0.3690   -1.0380   -1.7000 o         1 MOL     -0.698137
    109 O18         0.2290   -2.4080   -3.2580 o         1 MOL     -0.698137
    110 H47         1.5880   -1.1830    0.6900 hn        1 MOL      0.086275
    111 H48         2.8430   -2.9550   -1.5120 h1        1 MOL      0.072651
    112 H49         2.5640   -1.1710   -2.9670 hc        1 MOL      0.072005
    113 H50         1.9880   -0.1260   -1.6620 hc        1 MOL      0.072005
    114 N11         5.0440   -1.6440   -1.7710 n         1 MOL     -0.494211
    115 C36         6.4420   -1.2490   -1.6450 c3        1 MOL      0.267023
    116 C37         6.7400    0.2380   -1.3270 c         1 MOL      0.261118
    117 O19         7.4970    0.4840   -0.3440 o         1 MOL     -0.481442
    118 C38         7.3520   -1.6800   -2.7710 c3        1 MOL     -0.149291
    119 C39         8.8240   -1.6910   -2.3340 ca        1 MOL      0.104058
    120 C40         9.2190   -2.6650   -1.3530 ca        1 MOL     -0.246697
    121 C41         9.7120   -0.7040   -2.8110 ca        1 MOL     -0.246697
    122 C42        10.6110   -2.5420   -0.9220 ca        1 MOL     -0.018603
    123 C43        11.0600   -0.6610   -2.3960 ca        1 MOL     -0.018603
    124 C44        11.4950   -1.5910   -1.4750 ca        1 MOL     -0.183467
    125 H51         4.7690   -2.1160   -2.6190 hn        1 MOL      0.303532
    126 H52         6.7570   -1.7060   -0.7080 h1        1 MOL      0.067998
    127 H53         7.1350   -1.1390   -3.6910 hc        1 MOL      0.053973
    128 H54         7.1910   -2.7370   -2.9880 hc        1 MOL      0.053973
    129 H55         8.4490   -3.3280   -0.9950 ha        1 MOL      0.148025
    130 H56         9.4130    0.0860   -3.4820 ha        1 MOL      0.148025
    131 H57        10.9480   -3.3400   -0.2830 ha        1 MOL      0.090406
    132 H58        11.7380    0.0660   -2.7880 ha        1 MOL      0.090406
    133 H59        12.5250   -1.5960   -1.1460 ha        1 MOL      0.110447
    134 N12         6.1930    1.2810   -2.0000 n         1 MOL      0.063046
    135 C45         6.3630    2.6830   -1.5600 c3        1 MOL     -0.157244
    136 C46         5.6640    2.9870   -0.1750 c         1 MOL      0.400909
    137 O20         5.9940    4.0230    0.3960 o         1 MOL     -0.526084
    138 C47         5.7610    3.5630   -2.7520 c3        1 MOL     -0.041021
    139 C48         4.8230    2.5280   -3.3940 c3        1 MOL      0.064086
    140 C49         5.4610    1.1480   -3.2080 c3        1 MOL     -0.139762
    141 H60         7.4000    3.0290   -1.5410 h1        1 MOL      0.101291
    142 H61         5.1820    4.4450   -2.4780 hc        1 MOL      0.044502
    143 H62         6.5250    3.8520   -3.4820 hc        1 MOL      0.044502
    144 H63         3.9070    2.5770   -2.7970 hc        1 MOL      0.006244
    145 H64         4.6730    2.8180   -4.4380 hc        1 MOL      0.006244
    146 H65         4.6810    0.3830   -3.2650 h1        1 MOL      0.044878
    147 H66         6.2620    1.0090   -3.9370 h1        1 MOL      0.044878
    148 N13         4.7790    2.1430    0.2980 n         1 MOL     -0.115896
    149 C50         4.0770    2.3220    1.6010 c3        1 MOL     -0.388810
    150 C51         4.9510    1.7440    2.7230 c         1 MOL      0.598583
    151 O21         4.9750    2.2020    3.8610 o         1 MOL     -0.570590
    152 C52         2.7380    1.6330    1.4660 c3        1 MOL      0.047933
    153 C53         1.7630    2.3780    0.5750 c3        1 MOL      0.039300
    154 C54         0.4170    1.6730    0.5790 c         1 MOL      0.581058
    155 O22        -0.5480    2.2050   -0.0670 o         1 MOL     -0.756332
    156 O23         0.1330    0.5790    1.2120 o         1 MOL     -0.756332
    157 H67         4.6910    1.2810   -0.2330 hn        1 MOL      0.193561
    158 H68         3.9680    3.4030    1.7070 h1        1 MOL      0.182943
    159 H69         2.3110    1.5580    2.4680 hc        1 MOL      0.057342
    160 H70         2.8980    0.5840    1.2370 hc        1 MOL      0.057342
    161 H71         2.1250    2.3150   -0.4540 hc        1 MOL      0.037709
    162 H72         1.6840    3.4450    0.7700 hc        1 MOL      0.037709
    163 N14         5.6130    0.6180    2.4400 n         1 MOL     -0.161266
    164 C55         6.5930   -0.0730    3.2740 c3        1 MOL     -0.185980
    165 H73         7.5730   -0.0240    2.7990 h1        1 MOL      0.073708
    166 H74         6.6400    0.4050    4.2520 h1        1 MOL      0.073708
    167 H75         6.2990   -1.1160    3.3930 h1        1 MOL      0.073708
    168 H76         5.4530    0.0870    1.5870 hn        1 MOL      0.114189
    169 Ca1        -2.1020   -0.0590    0.0210 Ca        1 MOL      1.734302
    170 O24        -4.0910   -1.0810    1.8350 oh        1 MOL     -0.901093
    171 H77        -3.4660   -0.6590    2.4190 ho        1 MOL      0.427632
    172 H78        -4.8070   -1.3600    2.4110 ho        1 MOL      0.427632
    173 O25        -1.7780    0.1630    3.0880 oh        1 MOL     -0.901093
    174 H79        -0.8900    0.3690    2.7870 ho        1 MOL      0.427632
    175 H80        -1.8400    0.5530    3.9630 ho        1 MOL      0.427632
@<TRIPOS>BOND
     1    1    2 1   
     2    1    4 1   
     3    1    5 1   
     4    1    6 1   
     5    2    3 2   
     6    2    7 1   
     7    7    8 1   
     8    7   15 1   
     9    8    9 1   
    10    8   11 1   
    11    8   16 1   
    12    9   10 2   
    13    9   19 1   
    14   11   12 1   
    15   11   17 1   
    16   11   18 1   
    17   12   13 1   
    18   12   14 1   
    19   19   20 1   
    20   19   24 1   
    21   20   21 1   
    22   20   23 1   
    23   20   25 1   
    24   21   22 2   
    25   21   29 1   
    26   23   26 1   
    27   23   27 1   
    28   23   28 1   
    29   29   30 1   
    30   29   37 1   
    31   30   31 1   
    32   30   33 1   
    33   30   38 1   
    34   31   32 2   
    35   31   41 1   
    36   33   34 1   
    37   33   39 1   
    38   33   40 1   
    39   34   35 1   
    40   34   36 1   
    41   41   42 1   
    42   41   45 1   
    43   42   43 1   
    44   42   46 1   
    45   42   47 1   
    46   43   44 2   
    47   43   48 1   
    48   48   49 1   
    49   48   56 1   
    50   49   50 1   
    51   49   52 1   
    52   49   57 1   
    53   50   51 2   
    54   50   62 1   
    55   52   53 1   
    56   52   58 1   
    57   52   59 1   
    58   53   54 1   
    59   53   55 2   
    60   54   60 1   
    61   54   61 1   
    62   62   63 1   
    63   62   66 1   
    64   63   64 1   
    65   63   67 1   
    66   63   68 1   
    67   64   65 2   
    68   64   69 1   
    69   69   70 1   
    70   69   76 1   
    71   70   71 1   
    72   70   73 1   
    73   70   77 1   
    74   71   72 2   
    75   71   83 1   
    76   73   74 1   
    77   73   75 1   
    78   73   78 1   
    79   74   80 1   
    80   74   81 1   
    81   74   82 1   
    82   75   79 1   
    83   83   84 1   
    84   83   91 1   
    85   84   85 1   
    86   84   87 1   
    87   84   92 1   
    88   85   86 2   
    89   85  102 1   
    90   87   88 1   
    91   87   89 1   
    92   87   93 1   
    93   88   90 1   
    94   88   94 1   
    95   88   95 1   
    96   89   96 1   
    97   89   97 1   
    98   89   98 1   
    99   90   99 1   
   100   90  100 1   
   101   90  101 1   
   102  102  103 1   
   103  102  110 1   
   104  103  104 1   
   105  103  106 1   
   106  103  111 1   
   107  104  105 2   
   108  104  114 1   
   109  106  107 1   
   110  106  112 1   
   111  106  113 1   
   112  107  108 1   
   113  107  109 1   
   114  114  115 1   
   115  114  125 1   
   116  115  116 1   
   117  115  118 1   
   118  115  126 1   
   119  116  117 2   
   120  116  134 1   
   121  118  119 1   
   122  118  127 1   
   123  118  128 1   
   124  119  120 ar  
   125  119  121 ar  
   126  120  122 ar  
   127  120  129 1   
   128  121  123 ar  
   129  121  130 1   
   130  122  124 ar  
   131  122  131 1   
   132  123  124 ar  
   133  123  132 1   
   134  124  133 1   
   135  134  135 1   
   136  134  140 1   
   137  135  136 1   
   138  135  138 1   
   139  135  141 1   
   140  136  137 2   
   141  136  148 1   
   142  138  139 1   
   143  138  142 1   
   144  138  143 1   
   145  139  140 1   
   146  139  144 1   
   147  139  145 1   
   148  140  146 1   
   149  140  147 1   
   150  148  149 1   
   151  148  157 1   
   152  149  150 1   
   153  149  152 1   
   154  149  158 1   
   155  150  151 2   
   156  150  163 1   
   157  152  153 1   
   158  152  159 1   
   159  152  160 1   
   160  153  154 1   
   161  153  161 1   
   162  153  162 1   
   163  154  155 1   
   164  154  156 1   
   165  163  164 1   
   166  163  168 1   
   167  164  165 1   
   168  164  166 1   
   169  164  167 1   
   170  170  171 1   
   171  170  172 1   
   172  173  174 1   
   173  173  175 1   
@<TRIPOS>SUBSTRUCTURE
     1 MOL         1 TEMP              0 ****  ****    0 ROOT
