@<TRIPOS>MOLECULE
MOL
  189   185     1     0     0
SMALL
resp


@<TRIPOS>ATOM
      1 C1         -0.3080    1.2300    6.1480 c3        1 MOL     -0.109112
      2 C2         -0.5180    1.2620    4.6390 c         1 MOL      0.799974
      3 O1          0.3240    1.5360    3.8090 o         1 MOL     -0.690806
      4 H1          0.7270    1.4850    6.3760 hc        1 MOL      0.024594
      5 H2         -0.9720    1.9530    6.6240 hc        1 MOL      0.024594
      6 H3         -0.5270    0.2320    6.5260 hc        1 MOL      0.024594
      7 N1         -1.7680    0.9580    4.2580 n         1 MOL     -0.661252
      8 C3         -2.3300    1.3400    2.9410 c3        1 MOL      0.123533
      9 C4         -2.4780    2.8950    2.7750 c         1 MOL      0.387963
     10 O2         -2.8980    3.6920    3.6770 o         1 MOL     -0.562044
     11 C5         -3.6650    0.6210    2.6320 c3        1 MOL     -0.051718
     12 C6         -4.1670    0.8120    1.1640 c         1 MOL      0.601993
     13 O3         -5.3570    0.5290    0.9620 o         1 MOL     -0.617012
     14 O4         -3.4390    1.1200    0.1720 o         1 MOL     -0.617012
     15 H4         -2.4460    0.5440    4.8940 hn        1 MOL      0.326020
     16 H5         -1.5740    0.9300    2.2690 h1        1 MOL     -0.034353
     17 H6         -4.4200    0.9080    3.3610 hc        1 MOL      0.028039
     18 H7         -3.5120   -0.4540    2.6370 hc        1 MOL      0.028039
     19 N2         -2.1680    3.4170    1.5990 n         1 MOL      0.091964
     20 C7         -2.1190    4.7970    1.2550 c3        1 MOL     -0.408955
     21 C8         -3.0720    5.0270    0.0900 c         1 MOL      0.573567
     22 O5         -3.2350    6.1680   -0.3980 o         1 MOL     -0.556339
     23 C9         -0.7080    5.2650    0.9390 c3        1 MOL      0.050915
     24 C10         0.3500    4.7820    1.9260 c3        1 MOL      0.100306
     25 C11         1.7580    5.4660    1.7240 c3        1 MOL     -0.310680
     26 C12         2.2090    5.5640    0.2820 c3        1 MOL      0.266740
     27 N3          3.5730    6.1810    0.1880 n4        1 MOL     -0.412515
     28 H8         -1.6900    2.7760    0.9800 hn        1 MOL      0.308043
     29 H9         -2.5550    5.4220    2.0320 h1        1 MOL      0.161899
     30 H10        -0.6140    6.3510    0.8060 hc        1 MOL      0.040776
     31 H11        -0.4320    4.8500   -0.0320 hc        1 MOL      0.040776
     32 H12         0.4870    3.7040    1.8390 hc        1 MOL      0.046980
     33 H13        -0.0860    5.0570    2.8830 hc        1 MOL      0.046980
     34 H14         2.4880    4.8180    2.2080 hc        1 MOL      0.067595
     35 H15         1.7260    6.5110    2.0330 hc        1 MOL      0.067595
     36 H16         1.4210    6.0390   -0.2950 hx        1 MOL      0.024896
     37 H17         2.2950    4.5000    0.0430 hx        1 MOL      0.024896
     38 H18         3.4880    7.1430   -0.0840 hn        1 MOL      0.327598
     39 H19         3.9030    6.1600    1.1480 hn        1 MOL      0.327598
     40 H20         4.2450    5.7070   -0.3960 hn        1 MOL      0.327598
     41 N4         -3.7930    3.9940   -0.4530 n         1 MOL     -0.250506
     42 C13        -4.5610    4.1140   -1.7030 c3        1 MOL     -0.125135
     43 C14        -6.0400    3.7460   -1.6200 c         1 MOL      0.442661
     44 O6         -6.9040    4.1680   -2.4120 o         1 MOL     -0.540803
     45 C15        -3.9500    3.1540   -2.7890 c3        1 MOL      0.297191
     46 C16        -2.4910    3.0710   -2.7420 c         1 MOL      0.596517
     47 O7         -1.7400    4.1030   -2.9300 o         1 MOL     -0.658650
     48 O8         -2.0680    1.9280   -2.4740 o         1 MOL     -0.658650
     49 H21        -3.5660    3.1160   -0.0220 hn        1 MOL     -0.024281
     50 H22        -4.4860    5.1240   -2.1030 h1        1 MOL      0.120493
     51 H23        -4.2200    3.5040   -3.7840 hc        1 MOL     -0.077326
     52 H24        -4.3900    2.1750   -2.5860 hc        1 MOL     -0.077326
     53 N5         -6.4020    2.9620   -0.6180 n         1 MOL     -0.227142
     54 C17        -7.7550    2.5020   -0.2540 c3        1 MOL     -0.210617
     55 C18        -8.1370    1.1640   -1.0050 c         1 MOL      0.466379
     56 O9         -9.2860    0.9260   -1.3450 o         1 MOL     -0.551084
     57 H25        -5.5850    2.7360   -0.0610 hn        1 MOL      0.205869
     58 H26        -8.4560    3.2290   -0.6490 h1        1 MOL      0.124783
     59 H27        -7.9820    2.3980    0.8120 h1        1 MOL      0.124783
     60 N6         -7.0910    0.4260   -1.3830 n         1 MOL     -0.135054
     61 C19        -7.1820   -0.8580   -2.0250 c3        1 MOL     -0.062638
     62 C20        -7.0910   -2.1220   -1.0550 c         1 MOL      0.378972
     63 O10        -7.4520   -3.2370   -1.4090 o         1 MOL     -0.538225
     64 C21        -6.0970   -0.9840   -3.0770 c3        1 MOL     -0.291739
     65 C22        -4.6140   -1.0050   -2.6560 c         1 MOL      0.687140
     66 O11        -3.8390   -0.4750   -3.4800 o         1 MOL     -0.670142
     67 O12        -4.2000   -1.6040   -1.6450 o         1 MOL     -0.670142
     68 H28        -6.1770    0.6130   -0.9880 hn        1 MOL      0.242348
     69 H29        -8.1490   -0.9040   -2.5090 h1        1 MOL      0.115758
     70 H30        -6.3800   -0.2340   -3.8110 hc        1 MOL      0.090785
     71 H31        -6.2550   -1.9510   -3.5660 hc        1 MOL      0.090785
     72 N7         -6.6940   -1.7780    0.1590 n         1 MOL     -0.120024
     73 C23        -6.7070   -2.6920    1.3320 c3        1 MOL     -0.254599
     74 C24        -5.5200   -3.6420    1.3850 c         1 MOL      0.514657
     75 O13        -5.5200   -4.6480    2.1180 o         1 MOL     -0.592342
     76 H32        -6.3160   -0.8440    0.2550 hn        1 MOL      0.118365
     77 H33        -7.6560   -3.2210    1.3160 h1        1 MOL      0.128873
     78 H34        -6.5990   -2.0560    2.2020 h1        1 MOL      0.128873
     79 N8         -4.5640   -3.5780    0.4730 n         1 MOL      0.030147
     80 C25        -3.3780   -4.4230    0.4250 c3        1 MOL     -0.328934
     81 C26        -2.0540   -3.5540    0.3910 c         1 MOL      0.799686
     82 O14        -2.0940   -2.3240    0.4430 o         1 MOL     -0.745524
     83 C27        -3.4070   -5.3900   -0.7810 c3        1 MOL      0.352065
     84 C28        -4.5810   -6.4580   -0.6850 c3        1 MOL     -0.508448
     85 O15        -3.5230   -4.6130   -1.9400 oh        1 MOL     -0.630426
     86 H35        -4.6940   -2.7750   -0.1340 hn        1 MOL      0.136452
     87 H36        -3.3520   -4.9140    1.3940 h1        1 MOL      0.102806
     88 H37        -2.4760   -5.9540   -0.8640 h1        1 MOL      0.052558
     89 H38        -4.4350   -4.3850   -2.1200 ho        1 MOL      0.424440
     90 H39        -4.3110   -7.2900   -1.3340 hc        1 MOL      0.144936
     91 H40        -4.6950   -6.7780    0.3500 hc        1 MOL      0.144936
     92 H41        -5.5190   -5.9310   -0.8550 hc        1 MOL      0.144936
     93 N9         -0.8870   -4.2240    0.4180 n         1 MOL     -0.619593
     94 C29         0.3150   -3.5770    0.9700 c3        1 MOL      0.026381
     95 C30         1.4850   -3.8550   -0.0220 c         1 MOL      0.621429
     96 O16         1.4790   -4.8500   -0.7310 o         1 MOL     -0.548963
     97 C31         0.6810   -4.0250    2.3600 c3        1 MOL      0.042120
     98 C32        -0.4420   -3.5700    3.3620 c3        1 MOL      0.228000
     99 C33         2.0540   -3.4760    2.9190 c3        1 MOL     -0.562630
    100 C34        -0.6810   -2.0900    3.5870 c3        1 MOL     -0.249628
    101 H42        -0.8600   -5.2380    0.3440 hn        1 MOL      0.315516
    102 H43         0.1920   -2.5000    1.0590 h1        1 MOL      0.118955
    103 H44         0.7500   -5.1190    2.3480 hc        1 MOL      0.035712
    104 H45        -0.2780   -4.0680    4.3110 hc        1 MOL     -0.048265
    105 H46        -1.4240   -3.9580    3.0580 hc        1 MOL     -0.048265
    106 H47         2.8350   -4.1330    2.5380 hc        1 MOL      0.122953
    107 H48         2.2230   -2.4100    2.7600 hc        1 MOL      0.122953
    108 H49         2.0920   -3.7040    3.9890 hc        1 MOL      0.122953
    109 H50         0.1480   -1.6700    4.1650 hc        1 MOL      0.081498
    110 H51        -0.8290   -1.5170    2.6720 hc        1 MOL      0.081498
    111 H52        -1.6030   -1.9250    4.1430 hc        1 MOL      0.081498
    112 N10         2.4460   -2.9240   -0.1150 n         1 MOL     -0.562811
    113 C35         3.5140   -2.9370   -1.1640 c3        1 MOL      0.006961
    114 C36         4.8610   -2.4540   -0.6670 c         1 MOL      0.411115
    115 O17         4.9070   -1.8960    0.4400 o         1 MOL     -0.299019
    116 C37         3.1930   -2.0970   -2.3910 c3        1 MOL      0.144740
    117 C38         2.0480   -2.6550   -3.2520 c3        1 MOL     -0.489465
    118 O18         2.9470   -0.7630   -2.0050 oh        1 MOL     -0.616716
    119 H53         2.1970   -2.0300    0.2720 hn        1 MOL      0.570698
    120 H54         3.7960   -3.9460   -1.4790 h1        1 MOL      0.080139
    121 H55         4.1330   -2.0330   -2.9380 h1        1 MOL      0.039409
    122 H56         2.1400   -0.6480   -1.5020 ho        1 MOL      0.414672
    123 H57         1.7980   -2.1010   -4.1570 hc        1 MOL      0.151524
    124 H58         2.2950   -3.6320   -3.6730 hc        1 MOL      0.151524
    125 H59         1.1970   -2.6790   -2.5820 hc        1 MOL      0.151524
    126 N11         5.9500   -2.6710   -1.3960 n         1 MOL     -0.233327
    127 C39         7.3360   -2.5110   -0.9000 c3        1 MOL     -0.343423
    128 C40         7.5990   -1.2390   -0.0590 c         1 MOL      0.383363
    129 O19         8.2260   -1.3290    0.9720 o         1 MOL     -0.463538
    130 C41         8.4110   -2.6850   -2.0360 c3        1 MOL      0.381851
    131 C42         8.5010   -4.0490   -2.7910 c3        1 MOL     -0.487557
    132 O20         8.0880   -1.7860   -3.0500 oh        1 MOL     -0.583138
    133 H60         5.7900   -3.0630   -2.3150 hn        1 MOL      0.252167
    134 H61         7.4910   -3.3090   -0.1680 h1        1 MOL      0.171027
    135 H62         9.4010   -2.4990   -1.6230 h1        1 MOL      0.043174
    136 H63         8.7920   -1.1430   -3.1740 ho        1 MOL      0.332463
    137 H64         7.5290   -4.2690   -3.2270 hc        1 MOL      0.144762
    138 H65         9.2330   -3.8860   -3.5890 hc        1 MOL      0.144762
    139 H66         8.8150   -4.8880   -2.1700 hc        1 MOL      0.144762
    140 N12         7.0200   -0.1380   -0.4890 n         1 MOL     -0.145493
    141 C43         7.2390    1.1370    0.1000 c3        1 MOL     -0.152343
    142 C44         6.3720    1.3980    1.3300 c         1 MOL      0.594977
    143 O21         6.8930    1.8930    2.3170 o         1 MOL     -0.520632
    144 C45         6.9160    2.2290   -0.9280 c3        1 MOL     -0.264360
    145 C46         7.9400    2.4670   -2.0810 c3        1 MOL      0.235922
    146 C47         7.5990    3.6890   -2.9940 c3        1 MOL      0.047648
    147 C48         8.8000    3.9280   -3.8840 c3        1 MOL     -0.143520
    148 N13         9.3690    2.7560   -4.6010 n4        1 MOL     -0.096576
    149 H67         6.3800   -0.2120   -1.2670 hn        1 MOL      0.230277
    150 H68         8.2450    1.2100    0.5080 h1        1 MOL      0.122526
    151 H69         6.8860    3.1760   -0.3730 hc        1 MOL      0.055268
    152 H70         5.9090    2.1090   -1.3210 hc        1 MOL      0.055268
    153 H71         8.0160    1.5520   -2.6640 hc        1 MOL     -0.047794
    154 H72         8.9360    2.6990   -1.7130 hc        1 MOL     -0.047794
    155 H73         7.2930    4.6390   -2.5590 hc        1 MOL      0.024384
    156 H74         6.7020    3.3380   -3.4990 hc        1 MOL      0.024384
    157 H75         9.5570    4.2890   -3.2000 hx        1 MOL      0.115432
    158 H76         8.4950    4.6850   -4.6110 hx        1 MOL      0.115432
    159 H77         8.6630    2.0950   -4.9240 hn        1 MOL      0.210915
    160 H78         9.9620    2.9920   -5.3870 hn        1 MOL      0.210915
    161 H79         9.9700    2.2050   -4.0140 hn        1 MOL      0.210915
    162 N14         5.1160    0.8600    1.3590 n         1 MOL     -0.485755
    163 C49         4.1850    0.7240    2.5060 c3        1 MOL     -0.104280
    164 C50         4.6830   -0.2180    3.5530 c         1 MOL      0.609094
    165 O22         4.6420    0.1000    4.7430 o         1 MOL     -0.581895
    166 C51         2.8520    0.2190    1.9140 c3        1 MOL      0.324510
    167 C52         2.2860    1.1580    0.8950 c3        1 MOL     -0.116103
    168 C53         0.9510    0.7760    0.3120 c         1 MOL      0.845006
    169 O23        -0.0530    1.5580    0.2900 o         1 MOL     -0.837564
    170 O24         0.8040   -0.3110   -0.2970 o         1 MOL     -0.837564
    171 H80         4.8240    0.3820    0.5220 hn        1 MOL      0.279856
    172 H81         3.9530    1.6770    2.9750 h1        1 MOL      0.113333
    173 H82         2.1170    0.0100    2.6900 hc        1 MOL     -0.110128
    174 H83         3.0910   -0.7510    1.5010 hc        1 MOL     -0.110128
    175 H84         2.8900    1.2850   -0.0080 hc        1 MOL     -0.017353
    176 H85         2.1510    2.1460    1.3350 hc        1 MOL     -0.017353
    177 N15         5.1840   -1.3910    3.1630 n         1 MOL     -0.118699
    178 C54         5.9540   -2.3530    4.0540 c3        1 MOL     -0.686763
    179 H86         6.0250   -1.9380    5.0590 h1        1 MOL      0.224139
    180 H87         5.4330   -3.3100    4.0910 h1        1 MOL      0.224139
    181 H88         6.9560   -2.4990    3.6500 h1        1 MOL      0.224139
    182 H89         5.0890   -1.5920    2.1800 hn        1 MOL      0.175929
    183 Ca1        -1.7850   -0.2110   -1.1890 Ca        1 MOL      1.771210
    184 O25        -1.5980   -2.6210   -2.4080 oh        1 MOL     -0.841549
    185 H90        -2.3970   -3.0390   -2.0830 ho        1 MOL      0.405276
    186 H91        -1.3940   -3.0910   -3.2200 ho        1 MOL      0.405276
    187 O26        -0.6390   -0.3920   -3.5990 oh        1 MOL     -0.841549
    188 H92        -1.3130   -0.2020   -4.2520 ho        1 MOL      0.405276
    189 H93         0.1940   -0.2280   -4.0460 ho        1 MOL      0.405276
@<TRIPOS>BOND
     1    1    2 1   
     2    1    4 1   
     3    1    5 1   
     4    1    6 1   
     5    2    3 2   
     6    2    7 1   
     7    7    8 1   
     8    7   15 1   
     9    8    9 1   
    10    8   11 1   
    11    8   16 1   
    12    9   10 2   
    13    9   19 1   
    14   11   12 1   
    15   11   17 1   
    16   11   18 1   
    17   12   13 1   
    18   12   14 1   
    19   19   20 1   
    20   19   28 1   
    21   20   21 1   
    22   20   23 1   
    23   20   29 1   
    24   21   22 2   
    25   21   41 1   
    26   23   24 1   
    27   23   30 1   
    28   23   31 1   
    29   24   25 1   
    30   24   32 1   
    31   24   33 1   
    32   25   26 1   
    33   25   34 1   
    34   25   35 1   
    35   26   27 1   
    36   26   36 1   
    37   26   37 1   
    38   27   38 1   
    39   27   39 1   
    40   27   40 1   
    41   41   42 1   
    42   41   49 1   
    43   42   43 1   
    44   42   45 1   
    45   42   50 1   
    46   43   44 2   
    47   43   53 1   
    48   45   46 1   
    49   45   51 1   
    50   45   52 1   
    51   46   47 1   
    52   46   48 1   
    53   53   54 1   
    54   53   57 1   
    55   54   55 1   
    56   54   58 1   
    57   54   59 1   
    58   55   56 2   
    59   55   60 1   
    60   60   61 1   
    61   60   68 1   
    62   61   62 1   
    63   61   64 1   
    64   61   69 1   
    65   62   63 2   
    66   62   72 1   
    67   64   65 1   
    68   64   70 1   
    69   64   71 1   
    70   65   66 1   
    71   65   67 1   
    72   72   73 1   
    73   72   76 1   
    74   73   74 1   
    75   73   77 1   
    76   73   78 1   
    77   74   75 2   
    78   74   79 1   
    79   79   80 1   
    80   79   86 1   
    81   80   81 1   
    82   80   83 1   
    83   80   87 1   
    84   81   82 2   
    85   81   93 1   
    86   83   84 1   
    87   83   85 1   
    88   83   88 1   
    89   84   90 1   
    90   84   91 1   
    91   84   92 1   
    92   85   89 1   
    93   93   94 1   
    94   93  101 1   
    95   94   95 1   
    96   94   97 1   
    97   94  102 1   
    98   95   96 2   
    99   95  112 1   
   100   97   98 1   
   101   97   99 1   
   102   97  103 1   
   103   98  100 1   
   104   98  104 1   
   105   98  105 1   
   106   99  106 1   
   107   99  107 1   
   108   99  108 1   
   109  100  109 1   
   110  100  110 1   
   111  100  111 1   
   112  112  113 1   
   113  112  119 1   
   114  113  114 1   
   115  113  116 1   
   116  113  120 1   
   117  114  115 2   
   118  114  126 1   
   119  116  117 1   
   120  116  118 1   
   121  116  121 1   
   122  117  123 1   
   123  117  124 1   
   124  117  125 1   
   125  118  122 1   
   126  126  127 1   
   127  126  133 1   
   128  127  128 1   
   129  127  130 1   
   130  127  134 1   
   131  128  129 2   
   132  128  140 1   
   133  130  131 1   
   134  130  132 1   
   135  130  135 1   
   136  131  137 1   
   137  131  138 1   
   138  131  139 1   
   139  132  136 1   
   140  140  141 1   
   141  140  149 1   
   142  141  142 1   
   143  141  144 1   
   144  141  150 1   
   145  142  143 2   
   146  142  162 1   
   147  144  145 1   
   148  144  151 1   
   149  144  152 1   
   150  145  146 1   
   151  145  153 1   
   152  145  154 1   
   153  146  147 1   
   154  146  155 1   
   155  146  156 1   
   156  147  148 1   
   157  147  157 1   
   158  147  158 1   
   159  148  159 1   
   160  148  160 1   
   161  148  161 1   
   162  162  163 1   
   163  162  171 1   
   164  163  164 1   
   165  163  166 1   
   166  163  172 1   
   167  164  165 2   
   168  164  177 1   
   169  166  167 1   
   170  166  173 1   
   171  166  174 1   
   172  167  168 1   
   173  167  175 1   
   174  167  176 1   
   175  168  169 1   
   176  168  170 1   
   177  177  178 1   
   178  177  182 1   
   179  178  179 1   
   180  178  180 1   
   181  178  181 1   
   182  184  185 1   
   183  184  186 1   
   184  187  188 1   
   185  187  189 1   
@<TRIPOS>SUBSTRUCTURE
     1 MOL         1 TEMP              0 ****  ****    0 ROOT
