@<TRIPOS>MOLECULE
MOL
  189   185     1     0     0
SMALL
resp


@<TRIPOS>ATOM
      1 C1          1.8710   -2.7070    6.3430 c3        1 MOL     -0.306290
      2 C2          1.5570   -2.8190    4.8280 c         1 MOL      0.736547
      3 O1          0.9030   -1.9240    4.3070 o         1 MOL     -0.580983
      4 H1          2.8120   -2.1750    6.4810 hc        1 MOL      0.067827
      5 H2          1.0690   -2.1620    6.8420 hc        1 MOL      0.067827
      6 H3          1.9530   -3.7050    6.7720 hc        1 MOL      0.067827
      7 N1          2.1330   -3.7850    4.0750 n         1 MOL     -0.693980
      8 C3          2.5310   -3.5190    2.7330 c3        1 MOL      0.482865
      9 C4          2.3280   -4.7530    1.7980 c         1 MOL      0.294395
     10 O2          2.3260   -5.9350    2.2440 o         1 MOL     -0.561670
     11 C5          3.9980   -3.1530    2.7090 c3        1 MOL     -0.323067
     12 C6          4.4830   -3.0260    1.2770 c         1 MOL      0.666527
     13 O3          4.0490   -2.1490    0.5040 o         1 MOL     -0.645752
     14 O4          5.2570   -3.8570    0.8010 o         1 MOL     -0.645752
     15 H4          2.4580   -4.6310    4.5280 hn        1 MOL      0.327495
     16 H5          1.9720   -2.6900    2.2990 h1        1 MOL     -0.002708
     17 H6          4.5740   -3.9180    3.2420 hc        1 MOL      0.051025
     18 H7          4.0720   -2.2560    3.3200 hc        1 MOL      0.051025
     19 N2          2.0600   -4.4920    0.5140 n         1 MOL     -0.032259
     20 C7          2.0950   -5.5570   -0.5400 c3        1 MOL      0.056257
     21 C8          2.9690   -5.0920   -1.7720 c         1 MOL      0.331180
     22 O5          2.9780   -5.9490   -2.7500 o         1 MOL     -0.572085
     23 C9          0.7150   -6.1250   -1.0160 c3        1 MOL      0.209719
     24 C10        -0.1480   -5.2880   -1.9970 c3        1 MOL      0.386606
     25 C11        -0.1620   -6.6110    0.0970 c3        1 MOL     -0.220678
     26 C12        -1.1510   -6.0020   -2.9280 c3        1 MOL     -0.306143
     27 H8          1.9560   -3.5180    0.2600 hn        1 MOL     -0.036772
     28 H9          2.7120   -6.3470   -0.1120 h1        1 MOL      0.082408
     29 H10         1.0650   -6.9850   -1.5940 hc        1 MOL     -0.074889
     30 H11         0.5120   -4.8130   -2.7290 hc        1 MOL     -0.082340
     31 H12        -0.6220   -4.5080   -1.3980 hc        1 MOL     -0.082340
     32 H13        -1.0600   -7.1120   -0.2550 hc        1 MOL      0.025203
     33 H14         0.5270   -7.2770    0.6300 hc        1 MOL      0.025203
     34 H15        -0.5090   -5.7210    0.6260 hc        1 MOL      0.025203
     35 H16        -1.8360   -6.5010   -2.2390 hc        1 MOL      0.052475
     36 H17        -1.6660   -5.2170   -3.4960 hc        1 MOL      0.052475
     37 H18        -0.6120   -6.7000   -3.5490 hc        1 MOL      0.052475
     38 N3          3.5420   -3.8770   -1.8660 n         1 MOL     -0.190965
     39 C13         4.2060   -3.4870   -3.1490 c3        1 MOL     -0.045703
     40 C14         5.5460   -2.7350   -2.9580 c         1 MOL      0.413804
     41 O6          6.1130   -2.2880   -3.9730 o         1 MOL     -0.557166
     42 C15         3.0750   -2.8130   -4.0120 c3        1 MOL     -0.207276
     43 C16         2.6370   -1.4910   -3.3940 c         1 MOL      0.731323
     44 O7          3.2080   -0.9980   -2.3880 o         1 MOL     -0.715091
     45 O8          1.6430   -0.8950   -3.9440 o         1 MOL     -0.715091
     46 H19         3.6860   -3.3420   -1.0260 hn        1 MOL      0.166989
     47 H20         4.4750   -4.2800   -3.8560 h1        1 MOL      0.102348
     48 H21         2.2410   -3.5140   -4.0300 hc        1 MOL      0.085788
     49 H22         3.3520   -2.6550   -5.0500 hc        1 MOL      0.085788
     50 N4          6.0080   -2.4600   -1.7670 n         1 MOL     -0.204912
     51 C17         7.2700   -1.7210   -1.5690 c3        1 MOL     -0.218211
     52 C18         7.4090   -0.2840   -2.0220 c         1 MOL      0.413636
     53 O9          8.5870    0.2380   -2.0570 o         1 MOL     -0.571966
     54 H23         5.5740   -2.7460   -0.8920 hn        1 MOL      0.227290
     55 H24         8.0850   -2.2730   -2.0460 h1        1 MOL      0.109354
     56 H25         7.4780   -1.7810   -0.4990 h1        1 MOL      0.109354
     57 N5          6.3400    0.4650   -2.2980 n         1 MOL      0.023220
     58 C19         6.4120    1.8300   -2.7860 c3        1 MOL     -0.053522
     59 C20         7.0410    2.8590   -1.7680 c         1 MOL      0.430040
     60 O10         8.0580    3.5050   -2.0590 o         1 MOL     -0.548360
     61 C21         5.1150    2.3990   -3.2460 c3        1 MOL     -0.281906
     62 C22         3.8870    2.2810   -2.3450 c         1 MOL      0.700711
     63 O11         3.9700    1.8370   -1.1600 o         1 MOL     -0.665749
     64 O12         2.8280    2.7560   -2.8520 o         1 MOL     -0.665749
     65 H26         5.4080    0.1050   -2.1340 hn        1 MOL      0.114040
     66 H27         7.0610    1.6640   -3.6420 h1        1 MOL      0.077456
     67 H28         4.8460    1.9340   -4.2010 hc        1 MOL      0.099157
     68 H29         5.2290    3.4480   -3.5130 hc        1 MOL      0.099157
     69 N6          6.4380    2.9440   -0.5650 n         1 MOL     -0.029011
     70 C23         6.7520    3.7920    0.5220 c3        1 MOL     -0.247022
     71 C24         5.5320    4.3520    1.2500 c         1 MOL      0.490353
     72 O13         5.6980    5.2960    2.0310 o         1 MOL     -0.562910
     73 H30         5.8350    2.1810   -0.3180 hn        1 MOL      0.012366
     74 H31         7.1970    4.7010    0.1250 h1        1 MOL      0.109222
     75 H32         7.4520    3.3210    1.2100 h1        1 MOL      0.109222
     76 N7          4.3050    3.8500    0.8820 n         1 MOL     -0.197681
     77 C25         3.0200    4.2870    1.4970 c3        1 MOL     -0.004247
     78 C26         1.9550    3.1870    1.7690 c         1 MOL      0.591438
     79 O14         1.8970    2.2410    1.0250 o         1 MOL     -0.476632
     80 C27         2.2420    5.2600    0.6210 c3        1 MOL      0.074907
     81 C28         3.0250    6.5580    0.3090 c3        1 MOL     -0.217991
     82 C29         2.1840    7.7260   -0.1580 c         1 MOL      0.633755
     83 N8          1.7540    7.7900   -1.3640 n         1 MOL     -0.774510
     84 O15         1.7820    8.5890    0.5830 o         1 MOL     -0.588144
     85 H33         4.2310    3.1440    0.1570 hn        1 MOL      0.131754
     86 H34         3.1880    4.6650    2.5070 h1        1 MOL      0.031067
     87 H35         1.3380    5.5550    1.1700 hc        1 MOL      0.039779
     88 H36         2.0620    4.7280   -0.3110 hc        1 MOL      0.039779
     89 H37         3.8050    6.4230   -0.4390 hc        1 MOL      0.061847
     90 H38         3.4640    6.9480    1.2230 hc        1 MOL      0.061847
     91 H39         2.1620    7.1520   -2.0360 hn        1 MOL      0.357455
     92 H40         1.1540    8.5530   -1.6500 hn        1 MOL      0.357455
     93 N9          1.2260    3.2520    2.9290 n         1 MOL     -0.714686
     94 C30         0.0450    2.3860    3.1640 c3        1 MOL      0.143613
     95 C31        -1.0970    2.9050    2.1670 c         1 MOL      0.387881
     96 O16        -1.0650    4.1130    1.8000 o         1 MOL     -0.554563
     97 C32        -0.4580    2.3670    4.5950 c3        1 MOL      0.230160
     98 C33        -1.4840    1.2020    4.7830 c3        1 MOL     -0.287327
     99 C34         0.7840    2.1670    5.5130 c3        1 MOL     -0.287327
    100 H41         1.2940    4.0970    3.4690 hn        1 MOL      0.357808
    101 H42         0.3660    1.3720    2.9180 h1        1 MOL      0.077506
    102 H43        -0.9010    3.3410    4.7970 hc        1 MOL     -0.008926
    103 H44        -1.3020    0.2750    4.2390 hc        1 MOL      0.064131
    104 H45        -1.5160    0.8600    5.8250 hc        1 MOL      0.064131
    105 H46        -2.4620    1.6420    4.5810 hc        1 MOL      0.064131
    106 H47         1.2510    1.2270    5.2540 hc        1 MOL      0.064131
    107 H48         1.4320    3.0400    5.4850 hc        1 MOL      0.064131
    108 H49         0.4750    2.1660    6.5560 hc        1 MOL      0.064131
    109 N10        -1.9740    2.0530    1.6840 n         1 MOL     -0.033942
    110 C35        -3.1130    2.5440    0.9140 c3        1 MOL      0.082637
    111 C36        -4.4390    1.8190    1.2950 c         1 MOL      0.240327
    112 O17        -4.4580    0.7780    1.9870 o         1 MOL     -0.392945
    113 C37        -2.8800    2.5500   -0.5900 c3        1 MOL     -0.417225
    114 C38        -2.8360    1.1360   -1.0910 c         1 MOL      0.647009
    115 N11        -1.6770    0.7200   -1.5300 n         1 MOL     -0.723391
    116 O18        -3.7680    0.4290   -1.1370 o         1 MOL     -0.448320
    117 H50        -2.0260    1.1060    2.0280 hn        1 MOL     -0.018783
    118 H51        -3.3340    3.5540    1.2450 h1        1 MOL      0.061955
    119 H52        -1.9180    3.0370   -0.7470 hc        1 MOL      0.146651
    120 H53        -3.6230    3.0650   -1.2010 hc        1 MOL      0.146651
    121 H54        -0.8170    1.1430   -1.2000 hn        1 MOL      0.366433
    122 H55        -1.7430   -0.1950   -1.9360 hn        1 MOL      0.366433
    123 N12        -5.5470    2.3170    0.8580 n         1 MOL     -0.159218
    124 C39        -6.9260    1.7950    1.1310 c3        1 MOL      0.060183
    125 C40        -7.1030    0.3250    0.6290 c         1 MOL      0.356595
    126 O19        -7.9510   -0.3530    1.1410 o         1 MOL     -0.545325
    127 C41        -8.0030    2.6930    0.6000 c3        1 MOL     -0.262474
    128 C42        -7.8000    3.1500   -0.8650 ca        1 MOL     -0.022521
    129 C43        -8.3850    2.3400   -1.8770 ca        1 MOL     -0.052868
    130 C44        -7.0810    4.3160   -1.1340 ca        1 MOL     -0.052868
    131 C45        -8.1820    2.7980   -3.2420 ca        1 MOL     -0.389667
    132 C46        -6.8450    4.6480   -2.4280 ca        1 MOL     -0.389667
    133 C47        -7.3510    3.8400   -3.5030 ca        1 MOL      0.488352
    134 O20        -7.1110    4.1930   -4.7890 oh        1 MOL     -0.565636
    135 H56        -5.3660    3.2240    0.4510 hn        1 MOL      0.173272
    136 H57        -6.9650    1.7560    2.2130 h1        1 MOL      0.068967
    137 H58        -8.0080    3.6380    1.1390 hc        1 MOL      0.100455
    138 H59        -8.9150    2.1130    0.7500 hc        1 MOL      0.100455
    139 H60        -8.8900    1.4100   -1.6570 ha        1 MOL      0.120345
    140 H61        -6.7430    4.8920   -0.2930 ha        1 MOL      0.120345
    141 H62        -8.6190    2.1150   -3.9560 ha        1 MOL      0.165051
    142 H63        -6.3330    5.5790   -2.6270 ha        1 MOL      0.165051
    143 H64        -7.6590    3.6660   -5.3780 ho        1 MOL      0.395611
    144 N13        -6.5430   -0.1200   -0.4880 n         1 MOL      0.127825
    145 C48        -6.5520   -1.5630   -0.9180 c3        1 MOL     -0.052011
    146 C49        -5.5790   -2.4050   -0.1830 c         1 MOL      0.292579
    147 O21        -5.8860   -3.5460    0.0620 o         1 MOL     -0.495637
    148 C50        -6.5100   -1.8910   -2.3930 c3        1 MOL      0.142291
    149 C51        -7.7110   -1.3190   -3.2140 c3        1 MOL     -0.155511
    150 C52        -9.0810   -1.9100   -2.8270 c         1 MOL      0.625046
    151 O22        -9.8990   -1.1650   -2.2370 o         1 MOL     -0.696008
    152 O23        -9.2750   -3.1480   -3.0830 o         1 MOL     -0.696008
    153 H65        -6.0440    0.5940   -1.0040 hn        1 MOL      0.112302
    154 H66        -7.5110   -1.9460   -0.5710 h1        1 MOL      0.149142
    155 H67        -6.6520   -2.9670   -2.4590 hc        1 MOL     -0.015722
    156 H68        -5.6140   -1.4270   -2.8050 hc        1 MOL     -0.015722
    157 H69        -7.3500   -1.6940   -4.1770 hc        1 MOL     -0.018731
    158 H70        -7.7490   -0.2320   -3.2560 hc        1 MOL     -0.018731
    159 N14        -4.5160   -1.8260    0.3470 n         1 MOL      0.121765
    160 C53        -3.5210   -2.4910    1.1730 c3        1 MOL     -0.215804
    161 C54        -4.1580   -2.9180    2.5060 c         1 MOL      0.401306
    162 O24        -4.0410   -4.1210    2.8960 o         1 MOL     -0.563076
    163 C55        -2.3080   -1.5270    1.3130 c3        1 MOL      0.142986
    164 C56        -1.0300   -2.3980    1.1670 c3        1 MOL     -0.035467
    165 C57         0.1280   -1.5480    0.6630 c         1 MOL      0.795116
    166 O25         0.2960   -0.4340    1.2310 o         1 MOL     -0.749372
    167 O26         0.9650   -1.9070   -0.1760 o         1 MOL     -0.749372
    168 H71        -4.4450   -0.8230    0.2000 hn        1 MOL     -0.333227
    169 H72        -3.2410   -3.4130    0.6720 h1        1 MOL      0.132541
    170 H73        -2.4670   -1.0290    2.2700 hc        1 MOL      0.020955
    171 H74        -2.3040   -0.7110    0.6010 hc        1 MOL      0.020955
    172 H75        -1.1100   -3.1050    0.3360 hc        1 MOL      0.000989
    173 H76        -0.7790   -2.9380    2.0780 hc        1 MOL      0.000989
    174 N15        -4.9140   -2.0310    3.1100 n         1 MOL     -0.019477
    175 C58        -5.6970   -2.1670    4.3270 c3        1 MOL     -0.182989
    176 H77        -5.1270   -1.7780    5.1700 h1        1 MOL      0.070290
    177 H78        -6.6260   -1.6070    4.2260 h1        1 MOL      0.070290
    178 H79        -5.9240   -3.2200    4.4980 h1        1 MOL      0.070290
    179 H80        -4.9170   -1.1340    2.6300 hn        1 MOL      0.144734
    180 Ca1         2.7770   -0.0770   -0.0140 Ca        1 MOL      1.728062
    181 O27         2.5120   -0.2610    2.7000 oh        1 MOL     -0.894049
    182 H81         1.5670   -0.2100    2.6130 ho        1 MOL      0.433494
    183 H82         2.6800   -0.2380    3.6420 ho        1 MOL      0.433494
    184 O28         5.2140    0.8280    1.2890 oh        1 MOL     -0.894049
    185 H83         5.0940    0.6330    2.2230 ho        1 MOL      0.433494
    186 H84         6.1690    0.9090    1.1920 ho        1 MOL      0.433494
    187 O29         1.1240    1.0340   -1.7470 oh        1 MOL     -0.894049
    188 H85         1.3060    0.3290   -2.3710 ho        1 MOL      0.433494
    189 H86         1.7150    1.7440   -2.0150 ho        1 MOL      0.433494
@<TRIPOS>BOND
     1    1    2 1   
     2    1    4 1   
     3    1    5 1   
     4    1    6 1   
     5    2    3 2   
     6    2    7 1   
     7    7    8 1   
     8    7   15 1   
     9    8    9 1   
    10    8   11 1   
    11    8   16 1   
    12    9   10 2   
    13    9   19 1   
    14   11   12 1   
    15   11   17 1   
    16   11   18 1   
    17   12   13 1   
    18   12   14 1   
    19   19   20 1   
    20   19   27 1   
    21   20   21 1   
    22   20   23 1   
    23   20   28 1   
    24   21   22 2   
    25   21   38 1   
    26   23   24 1   
    27   23   25 1   
    28   23   29 1   
    29   24   26 1   
    30   24   30 1   
    31   24   31 1   
    32   25   32 1   
    33   25   33 1   
    34   25   34 1   
    35   26   35 1   
    36   26   36 1   
    37   26   37 1   
    38   38   39 1   
    39   38   46 1   
    40   39   40 1   
    41   39   42 1   
    42   39   47 1   
    43   40   41 2   
    44   40   50 1   
    45   42   43 1   
    46   42   48 1   
    47   42   49 1   
    48   43   44 1   
    49   43   45 1   
    50   50   51 1   
    51   50   54 1   
    52   51   52 1   
    53   51   55 1   
    54   51   56 1   
    55   52   53 2   
    56   52   57 1   
    57   57   58 1   
    58   57   65 1   
    59   58   59 1   
    60   58   61 1   
    61   58   66 1   
    62   59   60 2   
    63   59   69 1   
    64   61   62 1   
    65   61   67 1   
    66   61   68 1   
    67   62   63 1   
    68   62   64 1   
    69   69   70 1   
    70   69   73 1   
    71   70   71 1   
    72   70   74 1   
    73   70   75 1   
    74   71   72 2   
    75   71   76 1   
    76   76   77 1   
    77   76   85 1   
    78   77   78 1   
    79   77   80 1   
    80   77   86 1   
    81   78   79 2   
    82   78   93 1   
    83   80   81 1   
    84   80   87 1   
    85   80   88 1   
    86   81   82 1   
    87   81   89 1   
    88   81   90 1   
    89   82   83 1   
    90   82   84 2   
    91   83   91 1   
    92   83   92 1   
    93   93   94 1   
    94   93  100 1   
    95   94   95 1   
    96   94   97 1   
    97   94  101 1   
    98   95   96 2   
    99   95  109 1   
   100   97   98 1   
   101   97   99 1   
   102   97  102 1   
   103   98  103 1   
   104   98  104 1   
   105   98  105 1   
   106   99  106 1   
   107   99  107 1   
   108   99  108 1   
   109  109  110 1   
   110  109  117 1   
   111  110  111 1   
   112  110  113 1   
   113  110  118 1   
   114  111  112 2   
   115  111  123 1   
   116  113  114 1   
   117  113  119 1   
   118  113  120 1   
   119  114  115 1   
   120  114  116 2   
   121  115  121 1   
   122  115  122 1   
   123  123  124 1   
   124  123  135 1   
   125  124  125 1   
   126  124  127 1   
   127  124  136 1   
   128  125  126 2   
   129  125  144 1   
   130  127  128 1   
   131  127  137 1   
   132  127  138 1   
   133  128  129 ar  
   134  128  130 ar  
   135  129  131 ar  
   136  129  139 1   
   137  130  132 ar  
   138  130  140 1   
   139  131  133 ar  
   140  131  141 1   
   141  132  133 ar  
   142  132  142 1   
   143  133  134 1   
   144  134  143 1   
   145  144  145 1   
   146  144  153 1   
   147  145  146 1   
   148  145  148 1   
   149  145  154 1   
   150  146  147 2   
   151  146  159 1   
   152  148  149 1   
   153  148  155 1   
   154  148  156 1   
   155  149  150 1   
   156  149  157 1   
   157  149  158 1   
   158  150  151 1   
   159  150  152 1   
   160  159  160 1   
   161  159  168 1   
   162  160  161 1   
   163  160  163 1   
   164  160  169 1   
   165  161  162 2   
   166  161  174 1   
   167  163  164 1   
   168  163  170 1   
   169  163  171 1   
   170  164  165 1   
   171  164  172 1   
   172  164  173 1   
   173  165  166 1   
   174  165  167 1   
   175  174  175 1   
   176  174  179 1   
   177  175  176 1   
   178  175  177 1   
   179  175  178 1   
   180  181  182 1   
   181  181  183 1   
   182  184  185 1   
   183  184  186 1   
   184  187  188 1   
   185  187  189 1   
@<TRIPOS>SUBSTRUCTURE
     1 MOL         1 TEMP              0 ****  ****    0 ROOT
