@<TRIPOS>MOLECULE
MOL
  175   173     1     0     0
SMALL
resp


@<TRIPOS>ATOM
      1 C1          0.8410    3.6110    5.7170 c3        1 MOL     -0.365527
      2 C2          0.2400    3.6760    4.2990 c         1 MOL      0.654144
      3 O1          0.9680    3.7480    3.2510 o         1 MOL     -0.536554
      4 H1          0.0760    3.2820    6.4200 hc        1 MOL      0.098856
      5 H2          1.6720    2.9050    5.7280 hc        1 MOL      0.098856
      6 H3          1.2000    4.5990    6.0060 hc        1 MOL      0.098856
      7 N1         -1.0750    3.5600    4.0750 n         1 MOL     -0.554406
      8 C3         -1.8200    3.4320    2.8170 c3        1 MOL      0.019827
      9 C4         -1.9710    4.6810    2.0190 c         1 MOL      0.625532
     10 O2         -2.3010    5.7530    2.6020 o         1 MOL     -0.603206
     11 C5         -3.1870    2.7750    2.9440 c3        1 MOL     -0.081661
     12 C6         -3.8370    2.4260    1.5920 c         1 MOL      0.495345
     13 O3         -3.1870    1.8150    0.7190 o         1 MOL     -0.590832
     14 O4         -4.9630    2.9300    1.3130 o         1 MOL     -0.590832
     15 H4         -1.6920    3.5060    4.8790 hn        1 MOL      0.306640
     16 H5         -1.2730    2.7860    2.1300 h1        1 MOL      0.084582
     17 H6         -3.8920    3.4230    3.4750 hc        1 MOL      0.018339
     18 H7         -3.1310    1.9340    3.6350 hc        1 MOL      0.018339
     19 N2         -1.9170    4.6710    0.6850 n         1 MOL     -0.426662
     20 C7         -2.1530    5.7800   -0.2570 c3        1 MOL      0.209493
     21 C8         -2.9650    5.3490   -1.4790 c         1 MOL      0.454850
     22 O5         -2.9910    6.1930   -2.4190 o         1 MOL     -0.544765
     23 C9         -0.7850    6.4160   -0.6620 c3        1 MOL     -0.212263
     24 H8         -1.6090    3.7900    0.2940 hn        1 MOL      0.222649
     25 H9         -2.7220    6.5780    0.2280 h1        1 MOL      0.041669
     26 H10        -0.1610    6.7970    0.1430 hc        1 MOL      0.055714
     27 H11        -0.1610    5.7700   -1.2660 hc        1 MOL      0.055714
     28 H12        -1.0560    7.2040   -1.3670 hc        1 MOL      0.055714
     29 N3         -3.5240    4.0950   -1.5610 n         1 MOL     -0.427193
     30 C10        -4.2100    3.6080   -2.8000 c3        1 MOL      0.204134
     31 C11        -5.5180    2.9050   -2.4250 c         1 MOL      0.383237
     32 O6         -6.4320    2.9320   -3.2560 o         1 MOL     -0.602103
     33 C12        -3.2630    2.6270   -3.6620 c3        1 MOL     -0.237074
     34 C13        -2.8290    1.3840   -2.8810 c         1 MOL      0.803194
     35 O7         -3.6510    0.6540   -2.2870 o         1 MOL     -0.735218
     36 O8         -1.6130    1.1410   -2.8270 o         1 MOL     -0.735218
     37 H13        -3.3620    3.3760   -0.8670 hn        1 MOL      0.306140
     38 H14        -4.5210    4.4940   -3.3660 h1        1 MOL      0.041682
     39 H15        -2.4060    3.2040   -4.0060 hc        1 MOL      0.053968
     40 H16        -3.8270    2.3260   -4.5470 hc        1 MOL      0.053968
     41 N4         -5.7710    2.4540   -1.2330 n         1 MOL     -0.053631
     42 C14        -7.0680    1.9210   -0.8120 c3        1 MOL     -0.096493
     43 C15        -7.1730    0.3770   -1.0800 c         1 MOL      0.459804
     44 O9         -8.2870   -0.1680   -0.9570 o         1 MOL     -0.631834
     45 H17        -5.0900    2.5660   -0.4940 hn        1 MOL      0.009310
     46 H18        -7.9720    2.3800   -1.2170 h1        1 MOL      0.086012
     47 H19        -7.1200    2.0820    0.2650 h1        1 MOL      0.086012
     48 N5         -6.1360   -0.3220   -1.5750 n         1 MOL     -0.116126
     49 C16        -6.1950   -1.7260   -2.0280 c3        1 MOL     -0.065878
     50 C17        -6.2320   -2.8560   -0.9450 c         1 MOL      0.498074
     51 O10        -5.9730   -3.9840   -1.3250 o         1 MOL     -0.532754
     52 C18        -5.1500   -1.9100   -3.1570 c3        1 MOL     -0.222610
     53 C19        -3.7130   -2.0740   -2.6900 c         1 MOL      0.533899
     54 N6         -2.7210   -2.3160   -3.5550 n         1 MOL     -0.682479
     55 O11        -3.4660   -2.1150   -1.4840 o         1 MOL     -0.300134
     56 H20        -5.2470    0.1310   -1.7180 hn        1 MOL      0.105111
     57 H21        -7.1950   -1.8820   -2.4310 h1        1 MOL      0.103634
     58 H22        -5.2150   -1.0670   -3.8510 hc        1 MOL      0.082297
     59 H23        -5.5090   -2.7900   -3.6860 hc        1 MOL      0.082297
     60 H24        -2.8470   -2.2600   -4.5570 hn        1 MOL      0.327088
     61 H25        -1.7700   -2.4030   -3.2190 hn        1 MOL      0.327088
     62 N7         -6.5030   -2.6600    0.2940 n         1 MOL     -0.283527
     63 C20        -6.4730   -3.6200    1.4010 c3        1 MOL     -0.361896
     64 C21        -5.1120   -4.1760    1.9400 c         1 MOL      0.535572
     65 O12        -5.0280   -4.9320    2.9160 o         1 MOL     -0.602624
     66 H26        -6.6400   -1.7000    0.5580 hn        1 MOL      0.274582
     67 H27        -7.1640   -4.4170    1.1230 h1        1 MOL      0.156465
     68 H28        -6.8420   -3.0160    2.2270 h1        1 MOL      0.156465
     69 N8         -4.0570   -4.0080    1.1780 n         1 MOL      0.004385
     70 C22        -2.7400   -4.6730    1.4740 c3        1 MOL     -0.145779
     71 C23        -1.6480   -3.6440    1.4730 c         1 MOL      0.315856
     72 O13        -1.8420   -2.5560    0.8880 o         1 MOL     -0.430482
     73 C24        -2.5040   -5.6980    0.3580 c3        1 MOL      0.589826
     74 C25        -3.3740   -6.9680    0.4570 c3        1 MOL     -0.472463
     75 O14        -2.5720   -5.1520   -0.9390 oh        1 MOL     -0.596249
     76 H29        -4.0710   -3.2440    0.5180 hn        1 MOL     -0.081369
     77 H30        -2.7780   -5.2290    2.4080 h1        1 MOL      0.089075
     78 H31        -1.4670   -5.9790    0.4840 h1        1 MOL     -0.085531
     79 H32        -2.2380   -4.2480   -0.9120 ho        1 MOL      0.343158
     80 H33        -3.2370   -7.4890    1.4060 hc        1 MOL      0.112577
     81 H34        -4.3960   -6.6280    0.6290 hc        1 MOL      0.112577
     82 H35        -3.1190   -7.6590   -0.3500 hc        1 MOL      0.112577
     83 N9         -0.5170   -3.9860    1.9380 n         1 MOL     -0.282757
     84 C26         0.6420   -3.1390    1.8040 c3        1 MOL      0.038105
     85 C27         1.4970   -3.4110    0.6020 c         1 MOL      0.634353
     86 O15         1.8980   -4.5390    0.3380 o         1 MOL     -0.617443
     87 C28         1.4120   -3.1990    3.0990 c3        1 MOL      0.017591
     88 C29         0.7960   -2.2510    4.0900 c3        1 MOL      0.143345
     89 C30         2.9010   -2.9060    3.0790 c3        1 MOL     -0.182187
     90 C31         1.2730   -2.2870    5.6080 c3        1 MOL     -0.097379
     91 H36        -0.4960   -4.8600    2.4490 hn        1 MOL      0.239597
     92 H37         0.2940   -2.1100    1.7160 h1        1 MOL     -0.057479
     93 H38         1.2420   -4.2210    3.4170 hc        1 MOL      0.002571
     94 H39        -0.2710   -2.4410    4.2120 hc        1 MOL     -0.030057
     95 H40         0.9330   -1.2170    3.7790 hc        1 MOL     -0.030057
     96 H41         3.3390   -3.0620    4.0760 hc        1 MOL      0.038599
     97 H42         3.4240   -3.5950    2.4140 hc        1 MOL      0.038599
     98 H43         3.0510   -1.8900    2.7230 hc        1 MOL      0.038599
     99 H44         0.6730   -1.5020    6.0520 hc        1 MOL      0.010652
    100 H45         1.0310   -3.2280    6.1000 hc        1 MOL      0.010652
    101 H46         2.3380   -2.0710    5.6970 hc        1 MOL      0.010652
    102 N10         1.8060   -2.3370   -0.0770 n         1 MOL     -0.354122
    103 C32         2.6060   -2.1840   -1.2560 c3        1 MOL      0.158846
    104 C33         3.9840   -1.6040   -0.9410 c         1 MOL      0.349387
    105 O16         4.1280   -0.8910    0.0640 o         1 MOL     -0.371100
    106 C34         1.8100   -1.3760   -2.3330 c3        1 MOL     -0.218591
    107 C35         0.3870   -1.9320   -2.5280 c         1 MOL      0.716647
    108 O17        -0.4830   -1.6610   -1.7110 o         1 MOL     -0.675631
    109 O18         0.2830   -2.6880   -3.4990 o         1 MOL     -0.675631
    110 H47         1.3430   -1.4910    0.2530 hn        1 MOL      0.275253
    111 H48         2.7600   -3.1910   -1.6460 h1        1 MOL      0.038877
    112 H49         2.3880   -1.4560   -3.2530 hc        1 MOL      0.044645
    113 H50         1.7460   -0.3230   -2.0380 hc        1 MOL      0.044645
    114 N11         4.9910   -1.7740   -1.7610 n         1 MOL     -0.571612
    115 C36         6.3460   -1.2440   -1.5090 c3        1 MOL      0.386229
    116 C37         6.4560    0.2500   -1.1850 c         1 MOL      0.233907
    117 O19         7.1850    0.5880   -0.1810 o         1 MOL     -0.511223
    118 C38         7.3110   -1.7600   -2.6210 c3        1 MOL     -0.226279
    119 C39         8.7600   -1.7690   -2.1710 ca        1 MOL      0.010620
    120 C40         9.1970   -2.6250   -1.1630 ca        1 MOL     -0.074355
    121 C41         9.6400   -0.7910   -2.7170 ca        1 MOL     -0.074355
    122 C42        10.5440   -2.6360   -0.7930 ca        1 MOL     -0.201977
    123 C43        11.0110   -0.8310   -2.3440 ca        1 MOL     -0.201977
    124 C44        11.4600   -1.7440   -1.3300 ca        1 MOL     -0.016053
    125 H51         4.7650   -2.2970   -2.5950 hn        1 MOL      0.312370
    126 H52         6.6730   -1.6720   -0.5630 h1        1 MOL      0.055807
    127 H53         7.2610   -1.0370   -3.4370 hc        1 MOL      0.071577
    128 H54         7.0750   -2.7560   -2.9940 hc        1 MOL      0.071577
    129 H55         8.4150   -3.2560   -0.7700 ha        1 MOL      0.106797
    130 H56         9.3350   -0.0220   -3.4090 ha        1 MOL      0.106797
    131 H57        10.8060   -3.4100   -0.0840 ha        1 MOL      0.125457
    132 H58        11.6770   -0.0730   -2.7180 ha        1 MOL      0.125457
    133 H59        12.5140   -1.8340   -1.1290 ha        1 MOL      0.081184
    134 N12         5.8070    1.2070   -1.8360 n         1 MOL     -0.000505
    135 C45         5.9070    2.6110   -1.4760 c3        1 MOL     -0.073926
    136 C46         5.3240    3.0230   -0.0930 c         1 MOL      0.291462
    137 O20         5.5580    4.0660    0.4760 o         1 MOL     -0.506753
    138 C47         5.1380    3.3010   -2.5730 c3        1 MOL      0.000326
    139 C48         5.1740    2.3530   -3.7460 c3        1 MOL     -0.220208
    140 C49         4.9840    1.0390   -2.9960 c3        1 MOL      0.038983
    141 H60         6.9640    2.8500   -1.4060 h1        1 MOL      0.101004
    142 H61         4.1150    3.5410   -2.3160 hc        1 MOL      0.051305
    143 H62         5.6200    4.2500   -2.8260 hc        1 MOL      0.051305
    144 H63         4.3220    2.4130   -4.4090 hc        1 MOL      0.073469
    145 H64         6.1470    2.3260   -4.2270 hc        1 MOL      0.073469
    146 H65         3.9410    0.8400   -2.7550 h1        1 MOL      0.035973
    147 H66         5.3140    0.1980   -3.6150 h1        1 MOL      0.035973
    148 N13         4.5090    2.1400    0.4790 n         1 MOL      0.008216
    149 C50         3.8660    2.1780    1.8290 c3        1 MOL     -0.046963
    150 C51         4.7910    1.4830    2.8760 c         1 MOL      0.439955
    151 O21         5.0230    2.0230    3.9700 o         1 MOL     -0.561770
    152 C52         2.4910    1.5330    1.8000 c3        1 MOL      0.026457
    153 C53         1.6490    2.0240    0.5420 c3        1 MOL     -0.247862
    154 C54         0.3700    1.2130    0.3000 c         1 MOL      0.715627
    155 O22        -0.5360    1.8400   -0.2920 o         1 MOL     -0.694068
    156 O23         0.1850    0.1020    0.7710 o         1 MOL     -0.694068
    157 H67         4.3170    1.3560   -0.1270 hn        1 MOL      0.075459
    158 H68         3.7140    3.1930    2.1960 h1        1 MOL      0.081779
    159 H69         1.9400    1.7300    2.7170 hc        1 MOL      0.025493
    160 H70         2.6530    0.4590    1.8390 hc        1 MOL      0.025493
    161 H71         2.2310    1.7870   -0.3450 hc        1 MOL      0.085151
    162 H72         1.4570    3.0970    0.6230 hc        1 MOL      0.085151
    163 N14         5.3880    0.3530    2.5010 n         1 MOL     -0.099803
    164 C55         6.3720   -0.4220    3.3260 c3        1 MOL     -0.288969
    165 H73         5.8400   -0.9820    4.0950 h1        1 MOL      0.105063
    166 H74         6.9190   -1.1150    2.6850 h1        1 MOL      0.105063
    167 H75         7.0730    0.2670    3.7980 h1        1 MOL      0.105063
    168 H76         5.1030   -0.0770    1.6370 hn        1 MOL      0.136535
    169 Ca1        -2.0960   -0.1510   -0.4430 Ca        1 MOL      1.616240
    170 O24        -1.7220   -0.3280    2.7260 oh        1 MOL     -0.739079
    171 H77        -1.6390   -0.2670    3.6780 ho        1 MOL      0.373526
    172 H78        -0.8140   -0.3310    2.4110 ho        1 MOL      0.373526
    173 O25        -4.3590   -0.7820    1.2690 oh        1 MOL     -0.739079
    174 H79        -5.1960   -0.4930    1.6280 ho        1 MOL      0.373526
    175 H80        -3.7380   -0.6720    1.9860 ho        1 MOL      0.373526
@<TRIPOS>BOND
     1    1    2 1   
     2    1    4 1   
     3    1    5 1   
     4    1    6 1   
     5    2    3 2   
     6    2    7 1   
     7    7    8 1   
     8    7   15 1   
     9    8    9 1   
    10    8   11 1   
    11    8   16 1   
    12    9   10 2   
    13    9   19 1   
    14   11   12 1   
    15   11   17 1   
    16   11   18 1   
    17   12   13 1   
    18   12   14 1   
    19   19   20 1   
    20   19   24 1   
    21   20   21 1   
    22   20   23 1   
    23   20   25 1   
    24   21   22 2   
    25   21   29 1   
    26   23   26 1   
    27   23   27 1   
    28   23   28 1   
    29   29   30 1   
    30   29   37 1   
    31   30   31 1   
    32   30   33 1   
    33   30   38 1   
    34   31   32 2   
    35   31   41 1   
    36   33   34 1   
    37   33   39 1   
    38   33   40 1   
    39   34   35 1   
    40   34   36 1   
    41   41   42 1   
    42   41   45 1   
    43   42   43 1   
    44   42   46 1   
    45   42   47 1   
    46   43   44 2   
    47   43   48 1   
    48   48   49 1   
    49   48   56 1   
    50   49   50 1   
    51   49   52 1   
    52   49   57 1   
    53   50   51 2   
    54   50   62 1   
    55   52   53 1   
    56   52   58 1   
    57   52   59 1   
    58   53   54 1   
    59   53   55 2   
    60   54   60 1   
    61   54   61 1   
    62   62   63 1   
    63   62   66 1   
    64   63   64 1   
    65   63   67 1   
    66   63   68 1   
    67   64   65 2   
    68   64   69 1   
    69   69   70 1   
    70   69   76 1   
    71   70   71 1   
    72   70   73 1   
    73   70   77 1   
    74   71   72 2   
    75   71   83 1   
    76   73   74 1   
    77   73   75 1   
    78   73   78 1   
    79   74   80 1   
    80   74   81 1   
    81   74   82 1   
    82   75   79 1   
    83   83   84 1   
    84   83   91 1   
    85   84   85 1   
    86   84   87 1   
    87   84   92 1   
    88   85   86 2   
    89   85  102 1   
    90   87   88 1   
    91   87   89 1   
    92   87   93 1   
    93   88   90 1   
    94   88   94 1   
    95   88   95 1   
    96   89   96 1   
    97   89   97 1   
    98   89   98 1   
    99   90   99 1   
   100   90  100 1   
   101   90  101 1   
   102  102  103 1   
   103  102  110 1   
   104  103  104 1   
   105  103  106 1   
   106  103  111 1   
   107  104  105 2   
   108  104  114 1   
   109  106  107 1   
   110  106  112 1   
   111  106  113 1   
   112  107  108 1   
   113  107  109 1   
   114  114  115 1   
   115  114  125 1   
   116  115  116 1   
   117  115  118 1   
   118  115  126 1   
   119  116  117 2   
   120  116  134 1   
   121  118  119 1   
   122  118  127 1   
   123  118  128 1   
   124  119  120 ar  
   125  119  121 ar  
   126  120  122 ar  
   127  120  129 1   
   128  121  123 ar  
   129  121  130 1   
   130  122  124 ar  
   131  122  131 1   
   132  123  124 ar  
   133  123  132 1   
   134  124  133 1   
   135  134  135 1   
   136  134  140 1   
   137  135  136 1   
   138  135  138 1   
   139  135  141 1   
   140  136  137 2   
   141  136  148 1   
   142  138  139 1   
   143  138  142 1   
   144  138  143 1   
   145  139  140 1   
   146  139  144 1   
   147  139  145 1   
   148  140  146 1   
   149  140  147 1   
   150  148  149 1   
   151  148  157 1   
   152  149  150 1   
   153  149  152 1   
   154  149  158 1   
   155  150  151 2   
   156  150  163 1   
   157  152  153 1   
   158  152  159 1   
   159  152  160 1   
   160  153  154 1   
   161  153  161 1   
   162  153  162 1   
   163  154  155 1   
   164  154  156 1   
   165  163  164 1   
   166  163  168 1   
   167  164  165 1   
   168  164  166 1   
   169  164  167 1   
   170  170  171 1   
   171  170  172 1   
   172  173  174 1   
   173  173  175 1   
@<TRIPOS>SUBSTRUCTURE
     1 MOL         1 TEMP              0 ****  ****    0 ROOT
