@<TRIPOS>MOLECULE
MOL
  179   176     1     0     0
SMALL
resp


@<TRIPOS>ATOM
      1 C1          2.2980    3.4970    3.9080 c3        1 MOL     -0.331225
      2 C2          1.3680    3.1820    2.7850 c         1 MOL      0.669705
      3 O1          1.6980    3.2550    1.6160 o         1 MOL     -0.598149
      4 H1          3.3050    3.6340    3.5160 hc        1 MOL      0.084626
      5 H2          1.9740    4.4110    4.4040 hc        1 MOL      0.084626
      6 H3          2.2960    2.6740    4.6240 hc        1 MOL      0.084626
      7 N1          0.0820    2.8500    3.0660 n         1 MOL     -0.649288
      8 C3         -0.9370    2.6820    2.0490 c3        1 MOL      0.427809
      9 C4         -1.5680    4.0380    1.7650 c         1 MOL      0.395981
     10 O2         -2.6870    4.2040    2.1990 o         1 MOL     -0.458862
     11 C5         -1.9170    1.5950    2.4930 c3        1 MOL     -0.293845
     12 C6         -2.9160    1.3300    1.4760 c         1 MOL      0.634452
     13 O3         -4.0870    1.1940    1.8310 o         1 MOL     -0.658697
     14 O4         -2.5440    1.1740    0.2950 o         1 MOL     -0.658697
     15 H4         -0.1920    2.8650    4.0430 hn        1 MOL      0.311936
     16 H5         -0.4830    2.2360    1.1650 h1        1 MOL     -0.019038
     17 H6         -2.3290    1.9000    3.4560 hc        1 MOL      0.067856
     18 H7         -1.3610    0.6840    2.6890 hc        1 MOL      0.067856
     19 N2         -0.8950    4.9900    1.1290 n         1 MOL     -0.410072
     20 C7         -1.4690    6.2070    0.4910 c3        1 MOL     -0.021215
     21 C8         -2.5420    6.0450   -0.6070 c         1 MOL      0.439791
     22 O5         -3.2640    7.0010   -0.8360 o         1 MOL     -0.553511
     23 C9         -0.2870    6.9980   -0.0780 c3        1 MOL     -0.138319
     24 C10         0.4440    7.7480    1.1140 c3        1 MOL      0.346744
     25 C11         1.6750    8.4700    0.6220 c3        1 MOL     -0.321837
     26 C12         2.7980    7.5510    0.1380 c3        1 MOL      0.009821
     27 N3          3.5640    6.8940    1.2960 n4        1 MOL     -0.436683
     28 H8          0.1070    4.8770    1.0380 hn        1 MOL      0.261369
     29 H9         -2.0250    6.7470    1.2640 h1        1 MOL      0.104594
     30 H10        -0.5860    7.7950   -0.7540 hc        1 MOL      0.073469
     31 H11         0.3460    6.3820   -0.7100 hc        1 MOL      0.073469
     32 H12         0.7200    7.0020    1.8670 hc        1 MOL     -0.070117
     33 H13        -0.2480    8.4510    1.5770 hc        1 MOL     -0.070117
     34 H14         2.0360    9.0490    1.4740 hc        1 MOL      0.110231
     35 H15         1.3550    9.1490   -0.1640 hc        1 MOL      0.110231
     36 H16         3.4470    8.1910   -0.4630 hx        1 MOL      0.116142
     37 H17         2.3710    6.8270   -0.5540 hx        1 MOL      0.116142
     38 H18         4.1260    7.6050    1.7510 hn        1 MOL      0.351840
     39 H19         2.9380    6.4880    1.9730 hn        1 MOL      0.351840
     40 H20         4.1500    6.1510    0.9350 hn        1 MOL      0.351840
     41 N4         -2.6350    4.9260   -1.2670 n         1 MOL     -0.246292
     42 C13        -3.6390    4.6690   -2.3110 c3        1 MOL      0.035244
     43 C14        -4.9300    4.0930   -1.7370 c         1 MOL      0.377692
     44 O6         -5.8800    4.0070   -2.5010 o         1 MOL     -0.511228
     45 C15        -3.0400    3.6270   -3.3410 c3        1 MOL     -0.310781
     46 C16        -2.3310    2.3830   -2.6820 c         1 MOL      0.910610
     47 O7         -1.3530    2.5040   -1.9800 o         1 MOL     -0.785487
     48 O8         -2.6620    1.2350   -3.0780 o         1 MOL     -0.785487
     49 H21        -1.9630    4.2010   -1.0830 hn        1 MOL      0.183230
     50 H22        -3.9380    5.5530   -2.8790 h1        1 MOL      0.111039
     51 H23        -2.3390    4.2230   -3.9220 hc        1 MOL      0.082464
     52 H24        -3.8040    3.2670   -4.0210 hc        1 MOL      0.082464
     53 N5         -4.9510    3.6730   -0.4410 n         1 MOL     -0.104359
     54 C17        -6.1650    3.0950    0.2140 c3        1 MOL     -0.336279
     55 C18        -6.6260    1.7130   -0.2470 c         1 MOL      0.547578
     56 O9         -7.8330    1.4470   -0.0840 o         1 MOL     -0.570724
     57 H25        -4.1650    3.9630    0.1310 hn        1 MOL      0.195920
     58 H26        -6.9620    3.8320    0.0480 h1        1 MOL      0.150607
     59 H27        -5.9750    2.9500    1.2700 h1        1 MOL      0.150607
     60 N6         -5.9370    0.9290   -1.0900 n         1 MOL     -0.160005
     61 C19        -6.3380   -0.3810   -1.5580 c3        1 MOL     -0.115538
     62 C20        -6.3830   -1.4520   -0.4060 c         1 MOL      0.282953
     63 O10        -6.8000   -2.5690   -0.7890 o         1 MOL     -0.450017
     64 C21        -5.3960   -0.9530   -2.7070 c3        1 MOL     -0.152049
     65 C22        -4.0540   -1.5550   -2.3020 c         1 MOL      0.692573
     66 N7         -3.4690   -2.2540   -3.2510 n         1 MOL     -0.856457
     67 O11        -3.4740   -1.2660   -1.2560 o         1 MOL     -0.547889
     68 H28        -4.9950    1.2090   -1.3330 hn        1 MOL      0.149981
     69 H29        -7.3270   -0.2670   -1.9990 h1        1 MOL      0.137153
     70 H30        -5.1750   -0.2280   -3.4960 hc        1 MOL      0.072028
     71 H31        -5.9850   -1.7830   -3.1100 hc        1 MOL      0.072028
     72 H32        -3.8240   -2.3780   -4.1830 hn        1 MOL      0.396253
     73 H33        -2.6220   -2.7340   -2.9610 hn        1 MOL      0.396253
     74 N8         -5.9500   -1.1200    0.8210 n         1 MOL      0.002599
     75 C23        -6.0490   -1.9550    1.9680 c3        1 MOL     -0.477691
     76 C24        -4.8530   -2.9120    2.1060 c         1 MOL      0.728850
     77 O12        -4.9100   -3.7430    3.0050 o         1 MOL     -0.569541
     78 H34        -5.4270   -0.2700    0.9710 hn        1 MOL      0.201338
     79 H35        -6.9730   -2.5220    1.8610 h1        1 MOL      0.172153
     80 H36        -6.1610   -1.3160    2.8510 h1        1 MOL      0.172153
     81 N9         -3.7420   -2.7330    1.3320 n         1 MOL     -0.457621
     82 C25        -2.4990   -3.5020    1.4160 c3        1 MOL      0.050530
     83 C26        -1.2450   -2.6520    1.2550 c         1 MOL      0.683821
     84 O13        -1.2020   -1.6640    0.5950 o         1 MOL     -0.780588
     85 C27        -2.5760   -4.4860    0.2540 c3        1 MOL      0.133527
     86 C28        -3.6290   -5.5060    0.1930 ca        1 MOL     -0.067499
     87 C29        -4.8040   -5.3960   -0.6430 ca        1 MOL     -0.158607
     88 C30        -3.6620   -6.4680    1.1770 ca        1 MOL     -0.158607
     89 C31        -5.8080   -6.3610   -0.5390 ca        1 MOL     -0.159468
     90 C32        -4.6380   -7.4590    1.2790 ca        1 MOL     -0.159468
     91 C33        -5.7160   -7.4600    0.3580 ca        1 MOL      0.198815
     92 O14        -6.8050   -8.2480    0.5570 oh        1 MOL     -0.430144
     93 H37        -3.7350   -1.9770    0.6660 hn        1 MOL      0.322864
     94 H38        -2.4170   -4.0260    2.3600 h1        1 MOL      0.031471
     95 H39        -1.6520   -5.0620    0.2430 hc        1 MOL     -0.017165
     96 H40        -2.6440   -3.9670   -0.7080 hc        1 MOL     -0.017165
     97 H41        -4.9500   -4.5130   -1.2330 ha        1 MOL      0.115821
     98 H42        -2.8550   -6.3900    1.9000 ha        1 MOL      0.115821
     99 H43        -6.7130   -6.2240   -1.1010 ha        1 MOL      0.121481
    100 H44        -4.5980   -8.2010    2.0670 ha        1 MOL      0.121481
    101 H45        -6.6030   -8.8930    1.2290 ho        1 MOL      0.344383
    102 N10        -0.1020   -3.1130    1.7480 n         1 MOL     -0.581496
    103 C34         1.2390   -2.6000    1.5580 c3        1 MOL      0.028771
    104 C35         2.0130   -3.6770    0.8040 c         1 MOL      0.398919
    105 O15         1.7380   -4.9150    0.8890 o         1 MOL     -0.517338
    106 C36         1.8050   -2.3240    2.9670 c3        1 MOL      0.137241
    107 C37         1.0350   -1.1850    3.7760 c3        1 MOL      0.093492
    108 C38         3.3510   -2.1870    2.9490 c3        1 MOL     -0.300700
    109 C39         1.4060   -1.0670    5.2690 c3        1 MOL     -0.221752
    110 H46        -0.2320   -3.9560    2.2880 hn        1 MOL      0.308906
    111 H47         1.2330   -1.6270    1.0710 h1        1 MOL      0.117448
    112 H48         1.5970   -3.2090    3.5680 hc        1 MOL     -0.002746
    113 H49        -0.0480   -1.3110    3.7330 hc        1 MOL      0.027587
    114 H50         1.1780   -0.1890    3.3550 hc        1 MOL      0.027587
    115 H51         3.6940   -1.3630    2.3220 hc        1 MOL      0.071343
    116 H52         3.6400   -2.1700    4.0030 hc        1 MOL      0.071343
    117 H53         3.7860   -3.1450    2.6510 hc        1 MOL      0.071343
    118 H54         1.2170   -2.0280    5.7330 hc        1 MOL      0.050063
    119 H55         2.4410   -0.8050    5.4650 hc        1 MOL      0.050063
    120 H56         0.7070   -0.3420    5.7040 hc        1 MOL      0.050063
    121 N11         2.8980   -3.1580   -0.0570 n         1 MOL     -0.163425
    122 C40         4.0100   -3.7810   -0.7870 c3        1 MOL     -0.095384
    123 C41         5.3890   -3.3940   -0.2430 c         1 MOL      0.574565
    124 O16         5.4660   -2.4470    0.5290 o         1 MOL     -0.496754
    125 C42         3.8130   -3.4130   -2.2880 c3        1 MOL     -0.100288
    126 O17         4.0830   -2.0900   -2.5310 oh        1 MOL     -0.388065
    127 H57         3.0540   -2.1760    0.0870 hn        1 MOL      0.238024
    128 H58         3.9240   -4.8490   -0.6230 h1        1 MOL      0.066160
    129 H59         2.8060   -3.6560   -2.6440 h1        1 MOL      0.088887
    130 H60         4.5320   -3.9930   -2.8550 h1        1 MOL      0.088887
    131 H61         3.2890   -1.6560   -2.2040 ho        1 MOL      0.233914
    132 N12         6.4540   -4.0140   -0.7180 n         1 MOL     -0.422835
    133 C43         7.8460   -3.7520   -0.3480 c3        1 MOL     -0.048122
    134 C44         8.2290   -2.3680   -0.8070 c         1 MOL      0.635948
    135 O18         8.9570   -1.6570   -0.1030 o         1 MOL     -0.536210
    136 C45         8.6400   -4.8550   -1.1090 c3        1 MOL     -0.107430
    137 H62         6.2660   -4.7750   -1.3590 hn        1 MOL      0.277455
    138 H63         7.9860   -3.7980    0.7310 h1        1 MOL      0.127289
    139 H64         8.3030   -5.8900   -1.0830 hc        1 MOL      0.052513
    140 H65         8.7370   -4.6670   -2.1750 hc        1 MOL      0.052513
    141 H66         9.6670   -4.8750   -0.7320 hc        1 MOL      0.052513
    142 N13         7.7530   -1.9310   -1.9820 n         1 MOL     -0.538201
    143 C46         7.8980   -0.5780   -2.5360 c3        1 MOL      0.113695
    144 C47         7.2180    0.5550   -1.6800 c         1 MOL      0.275972
    145 O19         7.7190    1.6900   -1.7060 o         1 MOL     -0.503986
    146 C48         7.3210   -0.6390   -3.9910 c3        1 MOL     -0.124518
    147 H67         7.0260   -2.5080   -2.3780 hn        1 MOL      0.303697
    148 H68         8.9410   -0.3510   -2.7580 h1        1 MOL      0.102614
    149 H69         7.8470   -1.3850   -4.5780 hc        1 MOL      0.041581
    150 H70         6.2710   -0.9230   -4.0780 hc        1 MOL      0.041581
    151 H71         7.5820    0.2770   -4.5150 hc        1 MOL      0.041581
    152 N14         6.0850    0.2580   -1.0160 n         1 MOL      0.072411
    153 C49         5.4610    1.3400   -0.1290 c3        1 MOL     -0.290881
    154 C50         6.2090    1.3220    1.1850 c         1 MOL      0.532990
    155 O20         6.0440    2.2980    1.9290 o         1 MOL     -0.569808
    156 C51         4.0440    0.8780    0.1270 c3        1 MOL      0.289190
    157 C52         3.2740    1.0060   -1.1510 c3        1 MOL     -0.003519
    158 C53         1.9690    0.3400   -0.9580 c         1 MOL      0.500893
    159 O21         1.7890   -0.8700   -1.2990 o         1 MOL     -0.606488
    160 O22         1.0220    1.0070   -0.5490 o         1 MOL     -0.606488
    161 H72         5.7050   -0.6740   -1.1640 hn        1 MOL      0.043417
    162 H73         5.4770    2.3600   -0.4970 h1        1 MOL      0.155204
    163 H74         3.5830    1.5540    0.8550 hc        1 MOL     -0.043366
    164 H75         3.9720   -0.1290    0.5370 hc        1 MOL     -0.043366
    165 H76         3.8430    0.5560   -1.9710 hc        1 MOL     -0.029015
    166 H77         3.1760    2.0730   -1.3330 hc        1 MOL     -0.029015
    167 N15         7.0310    0.2540    1.4780 n         1 MOL     -0.175656
    168 C54         8.0980    0.3330    2.5250 c3        1 MOL     -0.322027
    169 H78         8.7450    1.1850    2.3190 h1        1 MOL      0.129836
    170 H79         7.6370    0.4550    3.5050 h1        1 MOL      0.129836
    171 H80         8.6880   -0.5830    2.5130 h1        1 MOL      0.129836
    172 H81         6.9420   -0.5840    0.9130 hn        1 MOL      0.149797
    173 Ca1        -1.1350   -0.0400   -1.5110 Ca        1 MOL      1.748753
    174 O23        -0.2560   -2.6230   -2.1580 oh        1 MOL     -0.874244
    175 H82        -0.1940   -3.5350   -2.4430 ho        1 MOL      0.426673
    176 H83         0.5470   -2.4690   -1.6630 ho        1 MOL      0.426673
    177 O24         0.1660    0.5150   -3.8430 oh        1 MOL     -0.874244
    178 H84         0.2810    1.3710   -4.2610 ho        1 MOL      0.426673
    179 H85         1.0250    0.0970   -3.9040 ho        1 MOL      0.426673
@<TRIPOS>BOND
     1    1    2 1   
     2    1    4 1   
     3    1    5 1   
     4    1    6 1   
     5    2    3 2   
     6    2    7 1   
     7    7    8 1   
     8    7   15 1   
     9    8    9 1   
    10    8   11 1   
    11    8   16 1   
    12    9   10 2   
    13    9   19 1   
    14   11   12 1   
    15   11   17 1   
    16   11   18 1   
    17   12   13 1   
    18   12   14 1   
    19   19   20 1   
    20   19   28 1   
    21   20   21 1   
    22   20   23 1   
    23   20   29 1   
    24   21   22 2   
    25   21   41 1   
    26   23   24 1   
    27   23   30 1   
    28   23   31 1   
    29   24   25 1   
    30   24   32 1   
    31   24   33 1   
    32   25   26 1   
    33   25   34 1   
    34   25   35 1   
    35   26   27 1   
    36   26   36 1   
    37   26   37 1   
    38   27   38 1   
    39   27   39 1   
    40   27   40 1   
    41   41   42 1   
    42   41   49 1   
    43   42   43 1   
    44   42   45 1   
    45   42   50 1   
    46   43   44 2   
    47   43   53 1   
    48   45   46 1   
    49   45   51 1   
    50   45   52 1   
    51   46   47 1   
    52   46   48 1   
    53   53   54 1   
    54   53   57 1   
    55   54   55 1   
    56   54   58 1   
    57   54   59 1   
    58   55   56 2   
    59   55   60 1   
    60   60   61 1   
    61   60   68 1   
    62   61   62 1   
    63   61   64 1   
    64   61   69 1   
    65   62   63 2   
    66   62   74 1   
    67   64   65 1   
    68   64   70 1   
    69   64   71 1   
    70   65   66 1   
    71   65   67 2   
    72   66   72 1   
    73   66   73 1   
    74   74   75 1   
    75   74   78 1   
    76   75   76 1   
    77   75   79 1   
    78   75   80 1   
    79   76   77 2   
    80   76   81 1   
    81   81   82 1   
    82   81   93 1   
    83   82   83 1   
    84   82   85 1   
    85   82   94 1   
    86   83   84 2   
    87   83  102 1   
    88   85   86 1   
    89   85   95 1   
    90   85   96 1   
    91   86   87 ar  
    92   86   88 ar  
    93   87   89 ar  
    94   87   97 1   
    95   88   90 ar  
    96   88   98 1   
    97   89   91 ar  
    98   89   99 1   
    99   90   91 ar  
   100   90  100 1   
   101   91   92 1   
   102   92  101 1   
   103  102  103 1   
   104  102  110 1   
   105  103  104 1   
   106  103  106 1   
   107  103  111 1   
   108  104  105 2   
   109  104  121 1   
   110  106  107 1   
   111  106  108 1   
   112  106  112 1   
   113  107  109 1   
   114  107  113 1   
   115  107  114 1   
   116  108  115 1   
   117  108  116 1   
   118  108  117 1   
   119  109  118 1   
   120  109  119 1   
   121  109  120 1   
   122  121  122 1   
   123  121  127 1   
   124  122  123 1   
   125  122  125 1   
   126  122  128 1   
   127  123  124 2   
   128  123  132 1   
   129  125  126 1   
   130  125  129 1   
   131  125  130 1   
   132  126  131 1   
   133  132  133 1   
   134  132  137 1   
   135  133  134 1   
   136  133  136 1   
   137  133  138 1   
   138  134  135 2   
   139  134  142 1   
   140  136  139 1   
   141  136  140 1   
   142  136  141 1   
   143  142  143 1   
   144  142  147 1   
   145  143  144 1   
   146  143  146 1   
   147  143  148 1   
   148  144  145 2   
   149  144  152 1   
   150  146  149 1   
   151  146  150 1   
   152  146  151 1   
   153  152  153 1   
   154  152  161 1   
   155  153  154 1   
   156  153  156 1   
   157  153  162 1   
   158  154  155 2   
   159  154  167 1   
   160  156  157 1   
   161  156  163 1   
   162  156  164 1   
   163  157  158 1   
   164  157  165 1   
   165  157  166 1   
   166  158  159 1   
   167  158  160 1   
   168  167  168 1   
   169  167  172 1   
   170  168  169 1   
   171  168  170 1   
   172  168  171 1   
   173  174  175 1   
   174  174  176 1   
   175  177  178 1   
   176  177  179 1   
@<TRIPOS>SUBSTRUCTURE
     1 MOL         1 TEMP              0 ****  ****    0 ROOT
