@<TRIPOS>MOLECULE
MOL
  175   173     1     0     0
SMALL
resp


@<TRIPOS>ATOM
      1 C1          0.6830    4.1190    5.7350 c3        1 MOL     -0.278407
      2 C2          0.0260    4.1940    4.3470 c         1 MOL      0.735793
      3 O1          0.7030    4.6640    3.4870 o         1 MOL     -0.563478
      4 H1          0.6520    5.1030    6.2050 hc        1 MOL      0.058475
      5 H2          0.1420    3.4040    6.3560 hc        1 MOL      0.058475
      6 H3          1.7190    3.7990    5.6320 hc        1 MOL      0.058475
      7 N1         -1.1520    3.6530    4.0700 n         1 MOL     -0.618583
      8 C3         -1.7890    3.4930    2.7380 c3        1 MOL      0.052345
      9 C4         -1.8680    4.6700    1.7880 c         1 MOL      0.711424
     10 O2         -1.9420    5.8450    2.1720 o         1 MOL     -0.604737
     11 C5         -3.2200    3.0190    2.9700 c3        1 MOL     -0.206028
     12 C6         -3.9380    2.6580    1.6490 c         1 MOL      0.573711
     13 O3         -3.2890    1.8810    0.8910 o         1 MOL     -0.606236
     14 O4         -5.0170    3.2480    1.3270 o         1 MOL     -0.606236
     15 H4         -1.6660    3.1450    4.7840 hn        1 MOL      0.304257
     16 H5         -1.2370    2.7090    2.2050 h1        1 MOL      0.115133
     17 H6         -3.8040    3.7160    3.5800 hc        1 MOL      0.027986
     18 H7         -2.9710    2.0640    3.4250 hc        1 MOL      0.027986
     19 N2         -1.7880    4.4540    0.4940 n         1 MOL     -0.571601
     20 C7         -1.9000    5.4800   -0.6200 c3        1 MOL      0.220721
     21 C8         -2.9220    5.1800   -1.7480 c         1 MOL      0.557242
     22 O5         -2.9120    5.8610   -2.7970 o         1 MOL     -0.574456
     23 C9         -0.5100    5.8470   -1.1500 c3        1 MOL     -0.229384
     24 H8         -1.8570    3.4910    0.1990 hn        1 MOL      0.284902
     25 H9         -2.4460    6.3310   -0.2350 h1        1 MOL      0.028726
     26 H10        -0.0050    5.0470   -1.6820 hc        1 MOL      0.062004
     27 H11        -0.5240    6.7200   -1.7940 hc        1 MOL      0.062004
     28 H12         0.2190    6.1420   -0.3950 hc        1 MOL      0.062004
     29 N3         -3.8250    4.1600   -1.6470 n         1 MOL     -0.465099
     30 C10        -4.6770    3.6500   -2.7790 c3        1 MOL      0.064073
     31 C11        -6.0040    2.8520   -2.4910 c         1 MOL      0.372485
     32 O6         -6.8610    2.7670   -3.3940 o         1 MOL     -0.575706
     33 C12        -3.7890    2.6310   -3.6450 c3        1 MOL     -0.182632
     34 C13        -3.1900    1.5100   -2.7260 c         1 MOL      0.686763
     35 O7         -1.9510    1.3230   -2.7700 o         1 MOL     -0.711376
     36 O8         -3.8890    0.7580   -2.0240 o         1 MOL     -0.711376
     37 H13        -3.9010    3.6470   -0.7890 hn        1 MOL      0.301228
     38 H14        -4.9860    4.4230   -3.4960 h1        1 MOL      0.083395
     39 H15        -2.9170    3.2000   -3.9590 hc        1 MOL      0.064160
     40 H16        -4.3560    2.2130   -4.4720 hc        1 MOL      0.064160
     41 N4         -6.1790    2.3130   -1.3260 n         1 MOL     -0.001759
     42 C14        -7.3970    1.5970   -0.8860 c3        1 MOL     -0.119627
     43 C15        -7.3740    0.0640   -1.2360 c         1 MOL      0.625292
     44 O9         -8.4610   -0.4510   -1.2600 o         1 MOL     -0.628922
     45 H17        -5.3990    2.4090   -0.6940 hn        1 MOL     -0.035329
     46 H18        -8.2950    2.0270   -1.3240 h1        1 MOL      0.084372
     47 H19        -7.7270    1.6310    0.1560 h1        1 MOL      0.084372
     48 N5         -6.2440   -0.6100   -1.4730 n         1 MOL     -0.501576
     49 C16        -6.2760   -2.0160   -1.9780 c3        1 MOL      0.306084
     50 C17        -6.2280   -3.1370   -0.8520 c         1 MOL      0.242422
     51 O10        -5.8270   -4.2770   -1.1430 o         1 MOL     -0.466121
     52 C18        -5.2530   -2.1360   -3.1460 c3        1 MOL     -0.360268
     53 C19        -3.7360   -2.2020   -2.7500 c         1 MOL      0.692674
     54 N6         -2.8360   -2.2970   -3.6620 n         1 MOL     -0.643809
     55 O11        -3.3450   -2.2260   -1.6150 o         1 MOL     -0.476162
     56 H20        -5.4510   -0.0480   -1.7210 hn        1 MOL      0.261866
     57 H21        -7.2780   -2.1530   -2.3790 h1        1 MOL      0.046406
     58 H22        -5.3980   -1.3130   -3.8570 hc        1 MOL      0.086323
     59 H23        -5.5130   -3.0600   -3.6460 hc        1 MOL      0.086323
     60 H24        -3.1340   -2.1160   -4.6190 hn        1 MOL      0.308434
     61 H25        -1.9030   -2.0400   -3.3830 hn        1 MOL      0.308434
     62 N7         -6.4080   -2.7740    0.3700 n         1 MOL     -0.044895
     63 C20        -6.4600   -3.7250    1.4800 c3        1 MOL     -0.452388
     64 C21        -5.1350   -4.3970    1.8330 c         1 MOL      0.561174
     65 O12        -5.1520   -5.2990    2.7260 o         1 MOL     -0.583460
     66 H26        -6.5870   -1.7940    0.5380 hn        1 MOL      0.183121
     67 H27        -7.0770   -4.5330    1.0840 h1        1 MOL      0.181113
     68 H28        -6.8230   -3.2670    2.3990 h1        1 MOL      0.181113
     69 N8         -4.0130   -3.8790    1.3520 n         1 MOL     -0.097298
     70 C22        -2.6900   -4.4740    1.6290 c3        1 MOL     -0.400300
     71 C23        -1.6670   -3.3890    1.6250 c         1 MOL      0.945136
     72 O13        -1.7580   -2.3470    0.9720 o         1 MOL     -0.725546
     73 C24        -2.4300   -5.5660    0.5940 c3        1 MOL      0.439881
     74 C25        -3.4940   -6.6840    0.4900 c3        1 MOL     -0.247828
     75 O14        -2.4880   -5.0460   -0.7610 oh        1 MOL     -0.574253
     76 H29        -4.1490   -3.1830    0.6370 hn        1 MOL      0.059810
     77 H30        -2.7490   -4.9710    2.6040 h1        1 MOL      0.130998
     78 H31        -1.4860   -6.0640    0.8140 h1        1 MOL     -0.013612
     79 H32        -2.7010   -4.1100   -0.7080 ho        1 MOL      0.321549
     80 H33        -3.2360   -7.5730   -0.0730 hc        1 MOL      0.059220
     81 H34        -3.7150   -7.0810    1.4820 hc        1 MOL      0.059220
     82 H35        -4.4190   -6.3530    0.0110 hc        1 MOL      0.059220
     83 N9         -0.6240   -3.5660    2.4100 n         1 MOL     -0.715644
     84 C26         0.7060   -2.8500    2.2390 c3        1 MOL     -0.172838
     85 C27         1.3530   -3.1750    0.8530 c         1 MOL      0.722137
     86 O15         1.6730   -4.3260    0.5490 o         1 MOL     -0.588702
     87 C28         1.6530   -3.0710    3.4320 c3        1 MOL      0.110569
     88 C29         0.9410   -2.4590    4.6710 c3        1 MOL      0.376759
     89 C30         3.0640   -2.5360    3.2980 c3        1 MOL     -0.112637
     90 C31         1.6310   -2.4730    6.0480 c3        1 MOL     -0.241218
     91 H36        -0.6100   -4.3280    3.0610 hn        1 MOL      0.355739
     92 H37         0.5200   -1.7710    2.2200 h1        1 MOL      0.159564
     93 H38         1.7910   -4.0930    3.7870 hc        1 MOL     -0.010039
     94 H39         0.0650   -3.0880    4.8810 hc        1 MOL     -0.115156
     95 H40         0.6450   -1.4690    4.3190 hc        1 MOL     -0.115156
     96 H41         3.5800   -3.0750    2.4940 hc        1 MOL     -0.002929
     97 H42         3.1810   -1.5270    2.9050 hc        1 MOL     -0.002929
     98 H43         3.5580   -2.6330    4.2600 hc        1 MOL     -0.002929
     99 H44         0.8910   -2.2060    6.8010 hc        1 MOL      0.044531
    100 H45         2.0810   -3.4590    6.1870 hc        1 MOL      0.044531
    101 H46         2.4280   -1.7390    6.0230 hc        1 MOL      0.044531
    102 N10         1.5420   -2.1090    0.0730 n         1 MOL     -0.429679
    103 C32         2.4510   -2.1120   -1.1110 c3        1 MOL      0.038969
    104 C33         3.9050   -1.6590   -0.8440 c         1 MOL      0.354770
    105 O16         4.1530   -1.0530    0.1580 o         1 MOL     -0.202986
    106 C34         1.8380   -1.2850   -2.2520 c3        1 MOL     -0.235556
    107 C35         0.4210   -1.7210   -2.5950 c         1 MOL      0.752537
    108 O17        -0.6010   -1.2530   -2.0250 o         1 MOL     -0.672015
    109 O18         0.2530   -2.3750   -3.6110 o         1 MOL     -0.672015
    110 H47         1.2180   -1.1990    0.3560 hn        1 MOL      0.227764
    111 H48         2.5730   -3.1520   -1.4190 h1        1 MOL      0.063433
    112 H49         2.4040   -1.4220   -3.1700 hc        1 MOL      0.050687
    113 H50         1.8810   -0.2410   -1.9370 hc        1 MOL      0.050687
    114 N11         4.8830   -1.9220   -1.7800 n         1 MOL     -0.465927
    115 C36         6.3210   -1.6130   -1.5100 c3        1 MOL      0.182804
    116 C37         6.6370   -0.1680   -1.0260 c         1 MOL      0.323686
    117 O19         7.1530    0.0280    0.0100 o         1 MOL     -0.469053
    118 C38         7.2260   -1.9810   -2.7160 c3        1 MOL     -0.307311
    119 C39         8.7080   -1.9220   -2.4010 ca        1 MOL      0.126630
    120 C40         9.3040   -2.9360   -1.6660 ca        1 MOL     -0.115168
    121 C41         9.4760   -0.8520   -2.9350 ca        1 MOL     -0.115168
    122 C42        10.6970   -2.8780   -1.4360 ca        1 MOL     -0.205194
    123 C43        10.8810   -0.8390   -2.6610 ca        1 MOL     -0.205194
    124 C44        11.5470   -1.7970   -1.8460 ca        1 MOL     -0.028301
    125 H51         4.7130   -2.4470   -2.6260 hn        1 MOL      0.294650
    126 H52         6.4180   -2.2780   -0.6620 h1        1 MOL      0.070019
    127 H53         7.1490   -1.3080   -3.5740 hc        1 MOL      0.098840
    128 H54         7.0990   -3.0420   -2.9350 hc        1 MOL      0.098840
    129 H55         8.7040   -3.7010   -1.1990 ha        1 MOL      0.120371
    130 H56         9.0060   -0.1010   -3.5560 ha        1 MOL      0.120371
    131 H57        11.1960   -3.5220   -0.7380 ha        1 MOL      0.121135
    132 H58        11.4390    0.0510   -2.9410 ha        1 MOL      0.121135
    133 H59        12.6010   -1.7120   -1.6230 ha        1 MOL      0.100635
    134 N12         6.1800    0.9270   -1.7260 n         1 MOL     -0.002124
    135 C45         6.5460    2.3120   -1.3440 c3        1 MOL     -0.079009
    136 C46         5.8380    2.6750   -0.0530 c         1 MOL      0.418148
    137 O20         6.3340    3.5270    0.6960 o         1 MOL     -0.515808
    138 C47         6.1640    3.2060   -2.5280 c3        1 MOL     -0.207895
    139 C48         5.0300    2.4690   -3.1020 c3        1 MOL      0.102788
    140 C49         5.3490    1.0060   -2.8700 c3        1 MOL     -0.090074
    141 H60         7.6330    2.3260   -1.2040 h1        1 MOL      0.088389
    142 H61         5.8480    4.2080   -2.2260 hc        1 MOL      0.084531
    143 H62         7.0150    3.1500   -3.2020 hc        1 MOL      0.084531
    144 H63         4.1220    2.7470   -2.5610 hc        1 MOL      0.001532
    145 H64         4.9910    2.6980   -4.1710 hc        1 MOL      0.001532
    146 H65         4.3920    0.5020   -2.7570 h1        1 MOL      0.023891
    147 H66         5.8180    0.5020   -3.7170 h1        1 MOL      0.023891
    148 N13         4.7160    1.9880    0.2510 n         1 MOL     -0.190776
    149 C50         3.9970    2.2450    1.5620 c3        1 MOL     -0.157902
    150 C51         4.8210    1.5790    2.7290 c         1 MOL      0.421981
    151 O21         5.0430    2.1880    3.7480 o         1 MOL     -0.517739
    152 C52         2.5720    1.7130    1.4990 c3        1 MOL      0.177795
    153 C53         1.7510    2.1220    0.3150 c3        1 MOL     -0.032853
    154 C54         0.3910    1.4660    0.3620 c         1 MOL      0.408638
    155 O22        -0.5840    2.0810   -0.0660 o         1 MOL     -0.581953
    156 O23         0.1930    0.3340    0.7690 o         1 MOL     -0.581953
    157 H67         4.2910    1.4010   -0.4570 hn        1 MOL      0.258479
    158 H68         3.9920    3.3220    1.7220 h1        1 MOL      0.132210
    159 H69         2.1000    1.9610    2.4520 hc        1 MOL     -0.047343
    160 H70         2.5540    0.6250    1.4160 hc        1 MOL     -0.047343
    161 H71         2.2780    1.8250   -0.5920 hc        1 MOL      0.030475
    162 H72         1.7200    3.2070    0.1930 hc        1 MOL      0.030475
    163 N14         5.4800    0.3970    2.4400 n         1 MOL      0.008357
    164 C55         6.3210   -0.3490    3.3330 c3        1 MOL     -0.187843
    165 H73         7.1320   -0.8080    2.7680 h1        1 MOL      0.070454
    166 H74         6.7370    0.3200    4.0860 h1        1 MOL      0.070454
    167 H75         5.7340   -1.1270    3.8220 h1        1 MOL      0.070454
    168 H76         5.3370    0.0320    1.5070 hn        1 MOL     -0.014081
    169 Ca1        -2.1660   -0.0740   -0.4260 Ca        1 MOL      1.702489
    170 O24        -4.2320   -0.9040    1.2910 oh        1 MOL     -0.776891
    171 H77        -3.7600   -0.2450    1.8000 ho        1 MOL      0.387602
    172 H78        -5.1310   -0.8730    1.6390 ho        1 MOL      0.387602
    173 O25        -1.7460    0.0160    2.8280 oh        1 MOL     -0.776891
    174 H79        -1.6720    0.4840    3.6530 ho        1 MOL      0.387602
    175 H80        -0.8860    0.1170    2.4130 ho        1 MOL      0.387602
@<TRIPOS>BOND
     1    1    2 1   
     2    1    4 1   
     3    1    5 1   
     4    1    6 1   
     5    2    3 2   
     6    2    7 1   
     7    7    8 1   
     8    7   15 1   
     9    8    9 1   
    10    8   11 1   
    11    8   16 1   
    12    9   10 2   
    13    9   19 1   
    14   11   12 1   
    15   11   17 1   
    16   11   18 1   
    17   12   13 1   
    18   12   14 1   
    19   19   20 1   
    20   19   24 1   
    21   20   21 1   
    22   20   23 1   
    23   20   25 1   
    24   21   22 2   
    25   21   29 1   
    26   23   26 1   
    27   23   27 1   
    28   23   28 1   
    29   29   30 1   
    30   29   37 1   
    31   30   31 1   
    32   30   33 1   
    33   30   38 1   
    34   31   32 2   
    35   31   41 1   
    36   33   34 1   
    37   33   39 1   
    38   33   40 1   
    39   34   35 1   
    40   34   36 1   
    41   41   42 1   
    42   41   45 1   
    43   42   43 1   
    44   42   46 1   
    45   42   47 1   
    46   43   44 2   
    47   43   48 1   
    48   48   49 1   
    49   48   56 1   
    50   49   50 1   
    51   49   52 1   
    52   49   57 1   
    53   50   51 2   
    54   50   62 1   
    55   52   53 1   
    56   52   58 1   
    57   52   59 1   
    58   53   54 1   
    59   53   55 2   
    60   54   60 1   
    61   54   61 1   
    62   62   63 1   
    63   62   66 1   
    64   63   64 1   
    65   63   67 1   
    66   63   68 1   
    67   64   65 2   
    68   64   69 1   
    69   69   70 1   
    70   69   76 1   
    71   70   71 1   
    72   70   73 1   
    73   70   77 1   
    74   71   72 2   
    75   71   83 1   
    76   73   74 1   
    77   73   75 1   
    78   73   78 1   
    79   74   80 1   
    80   74   81 1   
    81   74   82 1   
    82   75   79 1   
    83   83   84 1   
    84   83   91 1   
    85   84   85 1   
    86   84   87 1   
    87   84   92 1   
    88   85   86 2   
    89   85  102 1   
    90   87   88 1   
    91   87   89 1   
    92   87   93 1   
    93   88   90 1   
    94   88   94 1   
    95   88   95 1   
    96   89   96 1   
    97   89   97 1   
    98   89   98 1   
    99   90   99 1   
   100   90  100 1   
   101   90  101 1   
   102  102  103 1   
   103  102  110 1   
   104  103  104 1   
   105  103  106 1   
   106  103  111 1   
   107  104  105 2   
   108  104  114 1   
   109  106  107 1   
   110  106  112 1   
   111  106  113 1   
   112  107  108 1   
   113  107  109 1   
   114  114  115 1   
   115  114  125 1   
   116  115  116 1   
   117  115  118 1   
   118  115  126 1   
   119  116  117 2   
   120  116  134 1   
   121  118  119 1   
   122  118  127 1   
   123  118  128 1   
   124  119  120 ar  
   125  119  121 ar  
   126  120  122 ar  
   127  120  129 1   
   128  121  123 ar  
   129  121  130 1   
   130  122  124 ar  
   131  122  131 1   
   132  123  124 ar  
   133  123  132 1   
   134  124  133 1   
   135  134  135 1   
   136  134  140 1   
   137  135  136 1   
   138  135  138 1   
   139  135  141 1   
   140  136  137 2   
   141  136  148 1   
   142  138  139 1   
   143  138  142 1   
   144  138  143 1   
   145  139  140 1   
   146  139  144 1   
   147  139  145 1   
   148  140  146 1   
   149  140  147 1   
   150  148  149 1   
   151  148  157 1   
   152  149  150 1   
   153  149  152 1   
   154  149  158 1   
   155  150  151 2   
   156  150  163 1   
   157  152  153 1   
   158  152  159 1   
   159  152  160 1   
   160  153  154 1   
   161  153  161 1   
   162  153  162 1   
   163  154  155 1   
   164  154  156 1   
   165  163  164 1   
   166  163  168 1   
   167  164  165 1   
   168  164  166 1   
   169  164  167 1   
   170  170  171 1   
   171  170  172 1   
   172  173  174 1   
   173  173  175 1   
@<TRIPOS>SUBSTRUCTURE
     1 MOL         1 TEMP              0 ****  ****    0 ROOT
