@<TRIPOS>MOLECULE
MOL
  179   176     1     0     0
SMALL
resp


@<TRIPOS>ATOM
      1 C1          1.9050    3.2800    4.7300 c3        1 MOL     -0.316141
      2 C2          1.0480    2.9970    3.4950 c         1 MOL      0.649673
      3 O1          1.5240    2.9220    2.3950 o         1 MOL     -0.535679
      4 H1          1.6290    2.5910    5.5280 hc        1 MOL      0.087783
      5 H2          2.9570    3.1460    4.4810 hc        1 MOL      0.087783
      6 H3          1.7380    4.3050    5.0620 hc        1 MOL      0.087783
      7 N1         -0.2670    2.8290    3.6430 n         1 MOL     -0.570584
      8 C3         -1.2560    2.3850    2.6570 c3        1 MOL      0.184953
      9 C4         -1.8210    3.5460    1.8020 c         1 MOL      0.480803
     10 O2         -2.8720    4.1470    2.2100 o         1 MOL     -0.531989
     11 C5         -2.3280    1.4930    3.2860 c3        1 MOL     -0.001597
     12 C6         -3.2550    0.7350    2.2870 c         1 MOL      0.554604
     13 O3         -2.9190    0.7570    1.0750 o         1 MOL     -0.667369
     14 O4         -4.3150    0.1830    2.7550 o         1 MOL     -0.667369
     15 H4         -0.6530    2.8990    4.5730 hn        1 MOL      0.300620
     16 H5         -0.7730    1.7720    1.8960 h1        1 MOL     -0.172949
     17 H6         -2.9580    2.1710    3.8790 hc        1 MOL      0.019081
     18 H7         -1.9230    0.8210    4.0320 hc        1 MOL      0.019081
     19 N2         -1.1220    3.9290    0.7390 n         1 MOL     -0.273625
     20 C7         -1.4040    5.1310   -0.0400 c3        1 MOL     -0.007526
     21 C8         -2.7740    5.2640   -0.7960 c         1 MOL      0.341019
     22 O5         -3.2880    6.3390   -1.0410 o         1 MOL     -0.532368
     23 C9         -0.4080    5.3580   -1.1550 c3        1 MOL     -0.055186
     24 C10         0.9810    5.6330   -0.6740 c3        1 MOL      0.080286
     25 C11         1.7860    6.0670   -1.8900 c3        1 MOL      0.036304
     26 C12         3.2240    6.3620   -1.4820 c3        1 MOL      0.164865
     27 N3          4.0640    6.9200   -2.5540 n4        1 MOL     -0.474668
     28 H8         -0.2680    3.4140    0.5910 hn        1 MOL      0.264476
     29 H9         -1.2990    6.0140    0.6000 h1        1 MOL      0.078954
     30 H10        -0.6520    6.1750   -1.8320 hc        1 MOL      0.037163
     31 H11        -0.3980    4.4150   -1.7140 hc        1 MOL      0.037163
     32 H12         1.4570    4.8390   -0.1050 hc        1 MOL      0.002482
     33 H13         0.9300    6.5420   -0.0730 hc        1 MOL      0.002482
     34 H14         1.4890    7.0190   -2.3550 hc        1 MOL     -0.010834
     35 H15         1.7490    5.3200   -2.6780 hc        1 MOL     -0.010834
     36 H16         3.6940    5.4460   -1.1210 hx        1 MOL      0.049339
     37 H17         3.1460    6.9740   -0.5820 hx        1 MOL      0.049339
     38 H18         3.6740    7.8110   -2.8260 hn        1 MOL      0.353912
     39 H19         5.0050    7.1610   -2.2770 hn        1 MOL      0.353912
     40 H20         4.0700    6.2600   -3.3160 hn        1 MOL      0.353912
     41 N4         -3.4070    4.1400   -1.1020 n         1 MOL     -0.026794
     42 C13        -4.7630    4.0820   -1.6340 c3        1 MOL      0.025824
     43 C14        -5.8530    3.5510   -0.6440 c         1 MOL      0.383029
     44 O6         -7.0860    3.8000   -0.8610 o         1 MOL     -0.524956
     45 C15        -4.7960    3.2100   -2.9180 c3        1 MOL     -0.296295
     46 C16        -4.0950    1.8250   -2.9160 c         1 MOL      0.741668
     47 O7         -4.1660    1.1300   -3.9380 o         1 MOL     -0.692440
     48 O8         -3.1980    1.5820   -2.0660 o         1 MOL     -0.692440
     49 H21        -2.8200    3.3110   -1.1370 hn        1 MOL      0.027652
     50 H22        -5.1280    5.0670   -1.9360 h1        1 MOL      0.104793
     51 H23        -4.3700    3.7880   -3.7360 hc        1 MOL      0.083489
     52 H24        -5.8470    3.0260   -3.1320 hc        1 MOL      0.083489
     53 N5         -5.5060    2.9510    0.5330 n         1 MOL     -0.145830
     54 C17        -6.5360    2.2890    1.4090 c3        1 MOL     -0.318750
     55 C18        -6.9220    0.8680    0.9890 c         1 MOL      0.535146
     56 O9         -7.8740    0.2990    1.6110 o         1 MOL     -0.576094
     57 H25        -4.5310    2.9580    0.8030 hn        1 MOL      0.151182
     58 H26        -7.3860    2.9590    1.5130 h1        1 MOL      0.167536
     59 H27        -6.1130    2.1360    2.4080 h1        1 MOL      0.167536
     60 N6         -6.2180    0.2730    0.0570 n         1 MOL     -0.225319
     61 C19        -6.6010   -1.0230   -0.4700 c3        1 MOL      0.004895
     62 C20        -6.2960   -2.2440    0.5290 c         1 MOL      0.349931
     63 O10        -6.5110   -3.4640    0.2620 o         1 MOL     -0.522457
     64 C21        -6.0560   -1.3270   -1.9140 c3        1 MOL     -0.210440
     65 C22        -4.5870   -1.3560   -2.0870 c         1 MOL      0.760638
     66 N7         -4.1920   -1.7730   -3.2050 n         1 MOL     -0.704707
     67 O11        -3.8060   -1.1540   -1.2570 o         1 MOL     -0.558467
     68 H28        -5.3350    0.6790   -0.2340 hn        1 MOL      0.173947
     69 H29        -7.6860   -1.0380   -0.5730 h1        1 MOL      0.103813
     70 H30        -6.3440   -0.4250   -2.4640 hc        1 MOL      0.061163
     71 H31        -6.5040   -2.2560   -2.2700 hc        1 MOL      0.061163
     72 H32        -4.6720   -1.7020   -4.0870 hn        1 MOL      0.325414
     73 H33        -3.2260   -2.0460   -3.2390 hn        1 MOL      0.325414
     74 N8         -5.7730   -1.9730    1.6980 n         1 MOL     -0.181162
     75 C23        -5.6080   -2.9700    2.7560 c3        1 MOL     -0.017976
     76 C24        -4.3230   -3.7680    2.7190 c         1 MOL      0.428877
     77 O12        -4.2380   -4.7330    3.5030 o         1 MOL     -0.572951
     78 H34        -5.4910   -1.0100    1.7770 hn        1 MOL      0.276706
     79 H35        -6.4450   -3.6620    2.7830 h1        1 MOL      0.081219
     80 H36        -5.6930   -2.5650    3.7700 h1        1 MOL      0.081219
     81 N9         -3.3720   -3.4470    1.8490 n         1 MOL     -0.024033
     82 C25        -2.0270   -4.0720    1.8390 c3        1 MOL      0.030837
     83 C26        -0.9800   -3.1190    1.2620 c         1 MOL      0.254775
     84 O13        -1.3040   -2.0590    0.7050 o         1 MOL     -0.393497
     85 C27        -2.0700   -5.3680    0.9730 c3        1 MOL     -0.173117
     86 C28        -2.3710   -5.2230   -0.4820 ca        1 MOL      0.034505
     87 C29        -1.3950   -5.5740   -1.4180 ca        1 MOL     -0.071569
     88 C30        -3.6740   -4.7260   -0.9440 ca        1 MOL     -0.071569
     89 C31        -1.5630   -5.4390   -2.7630 ca        1 MOL     -0.299404
     90 C32        -3.8360   -4.7820   -2.3150 ca        1 MOL     -0.299404
     91 C33        -2.8150   -5.1420   -3.2510 ca        1 MOL      0.331110
     92 O14        -3.0450   -4.8410   -4.5930 oh        1 MOL     -0.538104
     93 H37        -3.5660   -2.6210    1.2960 hn        1 MOL      0.055196
     94 H38        -1.7450   -4.3990    2.8470 h1        1 MOL      0.077514
     95 H39        -2.7820   -6.0680    1.3970 hc        1 MOL      0.071876
     96 H40        -1.0620   -5.7350    1.1810 hc        1 MOL      0.071876
     97 H41        -0.4230   -5.9280   -1.0890 ha        1 MOL      0.109406
     98 H42        -4.5060   -4.6090   -0.2760 ha        1 MOL      0.109406
     99 H43        -0.7350   -5.5500   -3.4440 ha        1 MOL      0.142492
    100 H44        -4.8020   -4.4550   -2.6690 ha        1 MOL      0.142492
    101 H45        -3.9860   -4.6880   -4.6920 ho        1 MOL      0.391696
    102 N10         0.2940   -3.4970    1.4360 n         1 MOL     -0.246916
    103 C34         1.5280   -2.7420    1.1690 c3        1 MOL     -0.348812
    104 C35         2.7850   -3.4810    0.7060 c         1 MOL      0.649968
    105 O15         2.9500   -4.5910    1.1290 o         1 MOL     -0.545582
    106 C36         1.9240   -1.8450    2.3150 c3        1 MOL      0.217934
    107 C37         2.1460   -2.5990    3.6300 c3        1 MOL      0.128286
    108 C38         0.9080   -0.6680    2.5890 c3        1 MOL     -0.527755
    109 C39         2.8590   -1.8590    4.7600 c3        1 MOL      0.019516
    110 H46         0.4640   -4.3230    1.9870 hn        1 MOL      0.298358
    111 H47         1.3020   -2.0100    0.3960 h1        1 MOL      0.103324
    112 H48         2.8830   -1.4090    2.0390 hc        1 MOL     -0.087904
    113 H49         2.8430   -3.4120    3.4390 hc        1 MOL     -0.026697
    114 H50         1.2110   -3.0640    3.9510 hc        1 MOL     -0.026697
    115 H51         0.6470   -0.2600    1.6180 hc        1 MOL      0.167988
    116 H52         0.0310   -0.9720    3.1660 hc        1 MOL      0.167988
    117 H53         1.3500    0.1090    3.2090 hc        1 MOL      0.167988
    118 H54         2.7000   -2.5120    5.6150 hc        1 MOL     -0.015197
    119 H55         3.9110   -1.6140    4.6230 hc        1 MOL     -0.015197
    120 H56         2.2720   -0.9750    5.0020 hc        1 MOL     -0.015197
    121 N11         3.5020   -2.8770   -0.2320 n         1 MOL     -0.338093
    122 C40         4.7030   -3.4000   -0.8790 c3        1 MOL      0.081637
    123 C41         5.9250   -2.6790   -0.3080 c         1 MOL      0.471638
    124 O16         5.8190   -1.6880    0.4360 o         1 MOL     -0.461611
    125 C42         4.5810   -3.2840   -2.3980 c3        1 MOL     -0.027702
    126 O17         4.8340   -1.9610   -2.8500 oh        1 MOL     -0.545833
    127 H57         3.3350   -1.9280   -0.5170 hn        1 MOL      0.177489
    128 H58         4.7530   -4.4750   -0.7030 h1        1 MOL      0.050715
    129 H59         3.5400   -3.5470   -2.6300 h1        1 MOL      0.089561
    130 H60         5.2830   -3.9540   -2.8900 h1        1 MOL      0.089561
    131 H61         3.9700   -1.5260   -2.8950 ho        1 MOL      0.413843
    132 N12         7.1390   -3.1500   -0.6960 n         1 MOL     -0.432075
    133 C43         8.3940   -2.6130   -0.1700 c3        1 MOL      0.135094
    134 C44         8.5220   -1.0970   -0.5600 c         1 MOL      0.447984
    135 O18         9.1430   -0.2740    0.1230 o         1 MOL     -0.516498
    136 C45         9.4990   -3.4650   -0.6800 c3        1 MOL     -0.286724
    137 H62         7.2540   -4.0600   -1.1090 hn        1 MOL      0.280865
    138 H63         8.4730   -2.5200    0.9140 h1        1 MOL      0.078662
    139 H64         9.3340   -4.4750   -0.3150 hc        1 MOL      0.094622
    140 H65         9.4980   -3.3350   -1.7660 hc        1 MOL      0.094622
    141 H66        10.4750   -3.2330   -0.2450 hc        1 MOL      0.094622
    142 N13         7.8100   -0.7220   -1.6210 n         1 MOL     -0.342079
    143 C46         7.6670    0.6150   -2.1360 c3        1 MOL      0.076465
    144 C47         6.8580    1.5400   -1.2120 c         1 MOL      0.367244
    145 O19         7.0290    2.7430   -1.1130 o         1 MOL     -0.537192
    146 C48         6.9770    0.4820   -3.5190 c3        1 MOL     -0.287723
    147 H67         7.3070   -1.4410   -2.1150 hn        1 MOL      0.267247
    148 H68         8.6080    1.0980   -2.3920 h1        1 MOL      0.090148
    149 H69         7.3660   -0.3550   -4.0890 hc        1 MOL      0.078310
    150 H70         5.8950    0.3530   -3.4050 hc        1 MOL      0.078310
    151 H71         7.2650    1.4160   -4.0000 hc        1 MOL      0.078310
    152 N14         5.8500    0.9620   -0.5660 n         1 MOL      0.049387
    153 C49         4.9950    1.6890    0.4050 c3        1 MOL     -0.168320
    154 C50         5.6290    1.7820    1.7740 c         1 MOL      0.552554
    155 O20         5.5270    2.8400    2.4380 o         1 MOL     -0.538952
    156 C51         3.6070    1.0770    0.4900 c3        1 MOL      0.019910
    157 C52         2.7490    1.6450   -0.6260 c3        1 MOL      0.032531
    158 C53         1.3740    1.0660   -0.5520 c         1 MOL      0.517785
    159 O21         1.0760   -0.0710   -1.0160 o         1 MOL     -0.653159
    160 O22         0.3850    1.7800   -0.2300 o         1 MOL     -0.653159
    161 H72         5.6650   -0.0190   -0.7090 hn        1 MOL      0.081162
    162 H73         4.8280    2.7030    0.0480 h1        1 MOL      0.086920
    163 H74         3.1230    1.1850    1.4620 hc        1 MOL      0.037707
    164 H75         3.5940    0.0010    0.3380 hc        1 MOL      0.037707
    165 H76         3.2710    1.4970   -1.5700 hc        1 MOL     -0.030424
    166 H77         2.6940    2.7290   -0.5350 hc        1 MOL     -0.030424
    167 N15         6.4860    0.7750    2.1690 n         1 MOL     -0.307640
    168 C54         7.4790    1.0280    3.1860 c3        1 MOL     -0.087647
    169 H78         7.3430    0.3270    4.0100 h1        1 MOL      0.066584
    170 H79         8.4750    0.9020    2.7630 h1        1 MOL      0.066584
    171 H80         7.3680    2.0480    3.5570 h1        1 MOL      0.066584
    172 H81         6.6130   -0.0530    1.6010 hn        1 MOL      0.232532
    173 Ca1        -1.5130    0.0650   -1.0060 Ca        1 MOL      1.721323
    174 O23        -1.2280   -2.3330   -2.1570 oh        1 MOL     -0.881759
    175 H82        -0.4360   -2.5190   -2.6730 ho        1 MOL      0.424239
    176 H83        -1.6470   -3.1870   -2.0420 ho        1 MOL      0.424239
    177 O24        -0.8540    0.1660   -3.7310 oh        1 MOL     -0.881759
    178 H84        -1.5020    0.4640   -4.3600 ho        1 MOL      0.424239
    179 H85        -0.0090    0.4340   -4.1000 ho        1 MOL      0.424239
@<TRIPOS>BOND
     1    1    2 1   
     2    1    4 1   
     3    1    5 1   
     4    1    6 1   
     5    2    3 2   
     6    2    7 1   
     7    7    8 1   
     8    7   15 1   
     9    8    9 1   
    10    8   11 1   
    11    8   16 1   
    12    9   10 2   
    13    9   19 1   
    14   11   12 1   
    15   11   17 1   
    16   11   18 1   
    17   12   13 1   
    18   12   14 1   
    19   19   20 1   
    20   19   28 1   
    21   20   21 1   
    22   20   23 1   
    23   20   29 1   
    24   21   22 2   
    25   21   41 1   
    26   23   24 1   
    27   23   30 1   
    28   23   31 1   
    29   24   25 1   
    30   24   32 1   
    31   24   33 1   
    32   25   26 1   
    33   25   34 1   
    34   25   35 1   
    35   26   27 1   
    36   26   36 1   
    37   26   37 1   
    38   27   38 1   
    39   27   39 1   
    40   27   40 1   
    41   41   42 1   
    42   41   49 1   
    43   42   43 1   
    44   42   45 1   
    45   42   50 1   
    46   43   44 2   
    47   43   53 1   
    48   45   46 1   
    49   45   51 1   
    50   45   52 1   
    51   46   47 1   
    52   46   48 1   
    53   53   54 1   
    54   53   57 1   
    55   54   55 1   
    56   54   58 1   
    57   54   59 1   
    58   55   56 2   
    59   55   60 1   
    60   60   61 1   
    61   60   68 1   
    62   61   62 1   
    63   61   64 1   
    64   61   69 1   
    65   62   63 2   
    66   62   74 1   
    67   64   65 1   
    68   64   70 1   
    69   64   71 1   
    70   65   66 1   
    71   65   67 2   
    72   66   72 1   
    73   66   73 1   
    74   74   75 1   
    75   74   78 1   
    76   75   76 1   
    77   75   79 1   
    78   75   80 1   
    79   76   77 2   
    80   76   81 1   
    81   81   82 1   
    82   81   93 1   
    83   82   83 1   
    84   82   85 1   
    85   82   94 1   
    86   83   84 2   
    87   83  102 1   
    88   85   86 1   
    89   85   95 1   
    90   85   96 1   
    91   86   87 ar  
    92   86   88 ar  
    93   87   89 ar  
    94   87   97 1   
    95   88   90 ar  
    96   88   98 1   
    97   89   91 ar  
    98   89   99 1   
    99   90   91 ar  
   100   90  100 1   
   101   91   92 1   
   102   92  101 1   
   103  102  103 1   
   104  102  110 1   
   105  103  104 1   
   106  103  106 1   
   107  103  111 1   
   108  104  105 2   
   109  104  121 1   
   110  106  107 1   
   111  106  108 1   
   112  106  112 1   
   113  107  109 1   
   114  107  113 1   
   115  107  114 1   
   116  108  115 1   
   117  108  116 1   
   118  108  117 1   
   119  109  118 1   
   120  109  119 1   
   121  109  120 1   
   122  121  122 1   
   123  121  127 1   
   124  122  123 1   
   125  122  125 1   
   126  122  128 1   
   127  123  124 2   
   128  123  132 1   
   129  125  126 1   
   130  125  129 1   
   131  125  130 1   
   132  126  131 1   
   133  132  133 1   
   134  132  137 1   
   135  133  134 1   
   136  133  136 1   
   137  133  138 1   
   138  134  135 2   
   139  134  142 1   
   140  136  139 1   
   141  136  140 1   
   142  136  141 1   
   143  142  143 1   
   144  142  147 1   
   145  143  144 1   
   146  143  146 1   
   147  143  148 1   
   148  144  145 2   
   149  144  152 1   
   150  146  149 1   
   151  146  150 1   
   152  146  151 1   
   153  152  153 1   
   154  152  161 1   
   155  153  154 1   
   156  153  156 1   
   157  153  162 1   
   158  154  155 2   
   159  154  167 1   
   160  156  157 1   
   161  156  163 1   
   162  156  164 1   
   163  157  158 1   
   164  157  165 1   
   165  157  166 1   
   166  158  159 1   
   167  158  160 1   
   168  167  168 1   
   169  167  172 1   
   170  168  169 1   
   171  168  170 1   
   172  168  171 1   
   173  174  175 1   
   174  174  176 1   
   175  177  178 1   
   176  177  179 1   
@<TRIPOS>SUBSTRUCTURE
     1 MOL         1 TEMP              0 ****  ****    0 ROOT
