@<TRIPOS>MOLECULE
MOL
  183   181     1     0     0
SMALL
resp


@<TRIPOS>ATOM
      1 C1         -0.5750    1.4360    6.2490 c3        1 MOL     -0.312533
      2 C2         -1.0330    1.2580    4.7850 c         1 MOL      0.728151
      3 O1         -0.1590    1.1860    3.8620 o         1 MOL     -0.594709
      4 H1          0.1880    0.6930    6.4840 hc        1 MOL      0.072437
      5 H2         -0.1610    2.4360    6.3820 hc        1 MOL      0.072437
      6 H3         -1.4270    1.3040    6.9160 hc        1 MOL      0.072437
      7 N1         -2.2880    0.9740    4.4870 n         1 MOL     -0.601827
      8 C3         -2.8380    1.0850    3.1680 c3        1 MOL     -0.016092
      9 C4         -3.3860    2.5170    2.9020 c         1 MOL      0.591587
     10 O2         -4.1630    3.0980    3.7260 o         1 MOL     -0.600527
     11 C5         -3.9110   -0.0390    3.0830 c3        1 MOL     -0.097494
     12 C6         -4.6130    0.0010    1.7370 c         1 MOL      0.647080
     13 O3         -5.8100   -0.3510    1.6380 o         1 MOL     -0.650984
     14 O4         -3.9080    0.2510    0.7160 o         1 MOL     -0.650984
     15 H4         -2.9440    0.7560    5.2250 hn        1 MOL      0.331302
     16 H5         -2.0220    0.8690    2.4720 h1        1 MOL      0.151346
     17 H6         -4.6510    0.2450    3.8380 hc        1 MOL      0.017064
     18 H7         -3.5180   -1.0510    3.2350 hc        1 MOL      0.017064
     19 N2         -2.9620    3.2130    1.8530 n         1 MOL     -0.382770
     20 C7         -3.4240    4.5670    1.4900 c3        1 MOL     -0.035119
     21 C8         -4.6000    4.5780    0.4710 c         1 MOL      0.566500
     22 O5         -5.4110    5.5220    0.5300 o         1 MOL     -0.609609
     23 C9         -2.1940    5.3850    0.9790 c3        1 MOL      0.354451
     24 C10        -0.8780    5.0020    1.7390 c3        1 MOL      0.059043
     25 C11        -2.4510    6.8830    0.8570 c3        1 MOL     -0.118767
     26 C12         0.2390    5.9820    1.3600 c3        1 MOL     -0.241668
     27 H8         -2.2230    2.7900    1.3070 hn        1 MOL      0.221931
     28 H9         -3.7010    5.1250    2.3750 h1        1 MOL      0.056473
     29 H10        -1.8330    5.1260   -0.0220 hc        1 MOL     -0.055782
     30 H11        -0.5730    3.9650    1.6220 hc        1 MOL     -0.028476
     31 H12        -1.0890    4.9730    2.8070 hc        1 MOL     -0.028476
     32 H13        -2.7200    7.2080    1.8710 hc        1 MOL     -0.004844
     33 H14        -1.6110    7.4750    0.5070 hc        1 MOL     -0.004844
     34 H15        -3.3140    7.0110    0.2110 hc        1 MOL     -0.004844
     35 H16         0.4520    6.0610    0.2980 hc        1 MOL      0.057623
     36 H17        -0.0420    6.9960    1.6520 hc        1 MOL      0.057623
     37 H18         1.0340    5.6020    1.9980 hc        1 MOL      0.057623
     38 N3         -4.6670    3.6010   -0.4250 n         1 MOL     -0.293869
     39 C13        -5.4440    3.6870   -1.6150 c3        1 MOL     -0.006701
     40 C14        -6.6210    2.6400   -1.6420 c         1 MOL      0.433873
     41 O6         -7.2010    2.4290   -2.7070 o         1 MOL     -0.499962
     42 C15        -4.6350    3.6130   -2.9490 c3        1 MOL     -0.225328
     43 C16        -3.8020    2.3990   -3.1990 c         1 MOL      0.813987
     44 O7         -3.2200    2.2050   -4.2960 o         1 MOL     -0.710414
     45 O8         -3.5820    1.6740   -2.2430 o         1 MOL     -0.710414
     46 H19        -4.2150    2.7110   -0.3060 hn        1 MOL      0.152395
     47 H20        -5.8520    4.6910   -1.7000 h1        1 MOL      0.099653
     48 H21        -3.9170    4.4350   -2.9160 hc        1 MOL      0.046429
     49 H22        -5.2630    3.6820   -3.8260 hc        1 MOL      0.046429
     50 N4         -7.0450    2.1190   -0.5250 n         1 MOL     -0.333287
     51 C17        -8.3580    1.3500   -0.3860 c3        1 MOL     -0.161358
     52 C18        -8.4590    0.1050   -1.1660 c         1 MOL      0.462731
     53 O9         -9.5040   -0.3050   -1.6380 o         1 MOL     -0.590448
     54 H23        -6.4420    2.2970    0.2690 hn        1 MOL      0.263014
     55 H24        -9.1100    2.1100   -0.5980 h1        1 MOL      0.110074
     56 H25        -8.4820    1.0020    0.6390 h1        1 MOL      0.110074
     57 N5         -7.3540   -0.6050   -1.3760 n         1 MOL     -0.117010
     58 C19        -7.2800   -1.9880   -1.8990 c3        1 MOL     -0.001419
     59 C20        -7.2170   -3.0440   -0.6810 c         1 MOL      0.384167
     60 O10        -7.5120   -4.1690   -0.8700 o         1 MOL     -0.535566
     61 C21        -6.1660   -2.1790   -2.9240 c3        1 MOL     -0.169714
     62 C22        -4.8310   -1.6660   -2.5010 c         1 MOL      0.668542
     63 O11        -4.0370   -1.2180   -3.3380 o         1 MOL     -0.686891
     64 O12        -4.5440   -1.6020   -1.2850 o         1 MOL     -0.686891
     65 H26        -6.5070   -0.1470   -1.0810 hn        1 MOL      0.192187
     66 H27        -8.2490   -2.2570   -2.3270 h1        1 MOL      0.079935
     67 H28        -6.4630   -1.6890   -3.8460 hc        1 MOL      0.044368
     68 H29        -6.0600   -3.2360   -3.1790 hc        1 MOL      0.044368
     69 N6         -6.7390   -2.6180    0.5200 n         1 MOL     -0.145268
     70 C23        -6.5760   -3.4760    1.7640 c3        1 MOL     -0.110280
     71 C24        -5.2290   -4.2240    1.8120 c         1 MOL      0.588026
     72 O13        -5.2290   -5.3340    2.3420 o         1 MOL     -0.626739
     73 H30        -6.6010   -1.6210    0.5850 hn        1 MOL      0.124915
     74 H31        -7.2730   -4.3160    1.7450 h1        1 MOL      0.058270
     75 H32        -6.6620   -2.8990    2.6900 h1        1 MOL      0.058270
     76 N7         -4.1730   -3.7230    1.2240 n         1 MOL     -0.276068
     77 C25        -2.7910   -4.3410    1.1640 c3        1 MOL     -0.023616
     78 C26        -1.7500   -3.2660    1.1490 c         1 MOL      0.581601
     79 O14        -2.0660   -2.0970    0.9230 o         1 MOL     -0.633979
     80 C27        -2.7090   -5.2820   -0.0120 c3        1 MOL     -0.033559
     81 C28        -2.9750   -4.6420   -1.4030 c3        1 MOL     -0.249768
     82 C29        -1.7410   -3.9270   -1.9840 c         1 MOL      0.507051
     83 N8         -0.8530   -4.6580   -2.6540 n         1 MOL     -0.676931
     84 O15        -1.5200   -2.7050   -1.9170 o         1 MOL     -0.531911
     85 H33        -4.3700   -2.8520    0.7570 hn        1 MOL      0.256066
     86 H34        -2.6850   -4.9120    2.0920 h1        1 MOL      0.056409
     87 H35        -3.4300   -6.0880    0.1110 hc        1 MOL      0.030700
     88 H36        -1.7840   -5.8580    0.0240 hc        1 MOL      0.030700
     89 H37        -3.6660   -3.8110   -1.2570 hc        1 MOL      0.118772
     90 H38        -3.3020   -5.4260   -2.0810 hc        1 MOL      0.118772
     91 H39        -1.0430   -5.6040   -2.9440 hn        1 MOL      0.332770
     92 H40         0.0030   -4.1670   -2.8640 hn        1 MOL      0.332770
     93 N9         -0.5260   -3.6950    1.5180 n         1 MOL     -0.446758
     94 C30         0.6570   -2.8310    1.6960 c3        1 MOL      0.029134
     95 C31         1.9270   -3.2100    0.8830 c         1 MOL      0.352561
     96 O16         2.6270   -4.1900    1.1950 o         1 MOL     -0.524206
     97 C32         0.9970   -2.7260    3.2580 c3        1 MOL      0.256622
     98 C33         1.9660   -1.5540    3.4880 c3        1 MOL     -0.414394
     99 C34        -0.2600   -2.4160    4.0660 c3        1 MOL     -0.414394
    100 H41        -0.3820   -4.6480    1.7920 hn        1 MOL      0.294281
    101 H42         0.3390   -1.8130    1.4650 h1        1 MOL      0.137366
    102 H43         1.4590   -3.6810    3.4960 hc        1 MOL     -0.030241
    103 H44         2.9020   -1.6710    2.9400 hc        1 MOL      0.100300
    104 H45         1.4820   -0.6080    3.2210 hc        1 MOL      0.100300
    105 H46         2.1790   -1.4500    4.5510 hc        1 MOL      0.100300
    106 H47        -0.0720   -2.0530    5.0760 hc        1 MOL      0.100300
    107 H48        -0.8010   -1.5820    3.6090 hc        1 MOL      0.100300
    108 H49        -0.8350   -3.3440    4.1810 hc        1 MOL      0.100300
    109 N10         2.2870   -2.3230   -0.0860 n         1 MOL     -0.132486
    110 C35         3.4550   -2.4530   -0.9270 c3        1 MOL     -0.043962
    111 C36         4.8110   -1.9400   -0.2500 c         1 MOL      0.435055
    112 O17         4.7950   -1.2990    0.7690 o         1 MOL     -0.300057
    113 C37         3.1070   -1.7060   -2.2210 c3        1 MOL     -0.238576
    114 C38         1.8400   -2.1950   -2.7810 c         1 MOL      0.762143
    115 N11         0.7510   -1.5100   -2.6790 n         1 MOL     -0.743169
    116 O18         1.7810   -3.2200   -3.4040 o         1 MOL     -0.645406
    117 H50         1.6880   -1.5220   -0.2570 hn        1 MOL      0.149271
    118 H51         3.6000   -3.5040   -1.1670 h1        1 MOL      0.081671
    119 H52         3.8840   -1.7860   -2.9860 hc        1 MOL      0.043325
    120 H53         3.0200   -0.6400   -2.0200 hc        1 MOL      0.043325
    121 H54         0.7530   -0.7600   -1.9990 hn        1 MOL      0.370094
    122 H55        -0.1110   -1.9740   -2.9360 hn        1 MOL      0.370094
    123 N12         5.9350   -2.1720   -0.9100 n         1 MOL     -0.507126
    124 C39         7.2520   -1.5980   -0.4720 c3        1 MOL      0.200754
    125 C40         7.2380   -0.0730   -0.4290 c         1 MOL      0.511594
    126 O19         7.6440    0.6250    0.5160 o         1 MOL     -0.529640
    127 C41         8.5320   -2.2520   -1.1720 c3        1 MOL     -0.212672
    128 C42         9.7890   -1.6910   -0.4390 ca        1 MOL      0.051372
    129 C43        10.2640   -2.3600    0.7240 ca        1 MOL     -0.165442
    130 C44        10.4980   -0.5660   -0.8890 ca        1 MOL     -0.165442
    131 C45        11.3400   -1.8400    1.4510 ca        1 MOL     -0.307923
    132 C46        11.5620   -0.0350   -0.1570 ca        1 MOL     -0.307923
    133 C47        11.9640   -0.6840    1.0290 ca        1 MOL      0.444205
    134 O20        13.0290   -0.2410    1.6920 oh        1 MOL     -0.545850
    135 H56         5.9490   -2.8790   -1.6350 hn        1 MOL      0.305514
    136 H57         7.2980   -1.9080    0.5810 h1        1 MOL      0.043585
    137 H58         8.5510   -1.8250   -2.1680 hc        1 MOL      0.068115
    138 H59         8.4300   -3.3420   -1.1520 hc        1 MOL      0.068115
    139 H60         9.7270   -3.2640    0.9910 ha        1 MOL      0.150672
    140 H61        10.2930   -0.0580   -1.8200 ha        1 MOL      0.150672
    141 H62        11.6340   -2.2890    2.3890 ha        1 MOL      0.155701
    142 H63        12.0770    0.8370   -0.5450 ha        1 MOL      0.155701
    143 H64        13.4730    0.4590    1.2040 ho        1 MOL      0.380473
    144 N13         6.4280    0.4610   -1.3310 n         1 MOL     -0.292801
    145 C48         6.1580    1.8470   -1.4380 c3        1 MOL     -0.001965
    146 C49         5.1560    2.3530   -0.3790 c         1 MOL      0.358403
    147 O21         5.0790    3.5290   -0.2760 o         1 MOL     -0.524036
    148 C50         5.6920    2.2200   -2.8640 c3        1 MOL      0.065136
    149 C51         6.9250    2.4620   -3.7730 c3        1 MOL     -0.236340
    150 C52         6.4620    2.7730   -5.2240 c         1 MOL      0.725066
    151 O22         6.5530    1.7780   -6.0490 o         1 MOL     -0.738924
    152 O23         6.1450    3.8930   -5.6560 o         1 MOL     -0.738924
    153 H65         6.2650   -0.1830   -2.0960 hn        1 MOL      0.261388
    154 H66         7.0020    2.5180   -1.2980 h1        1 MOL      0.095066
    155 H67         5.0680    3.1230   -2.8330 hc        1 MOL      0.017649
    156 H68         5.1720    1.4070   -3.3590 hc        1 MOL      0.017649
    157 H69         7.4790    1.5320   -3.7220 hc        1 MOL      0.003752
    158 H70         7.5090    3.3060   -3.4220 hc        1 MOL      0.003752
    159 N14         4.4420    1.5300    0.3720 n         1 MOL     -0.025230
    160 C53         3.5390    2.1050    1.4420 c3        1 MOL      0.046531
    161 C54         4.3070    1.8190    2.7610 c         1 MOL      0.379147
    162 O24         4.1950    2.6830    3.6500 o         1 MOL     -0.556975
    163 C55         2.2040    1.3730    1.4200 c3        1 MOL     -0.060757
    164 C56         1.4150    1.8860    0.1940 c3        1 MOL      0.291369
    165 C57         0.1400    1.1230    0.0620 c         1 MOL      0.598426
    166 O25        -0.9760    1.7250    0.2390 o         1 MOL     -0.746463
    167 O26         0.1900   -0.0340   -0.4520 o         1 MOL     -0.746463
    168 H71         4.6440    0.5480    0.4060 hn        1 MOL     -0.107025
    169 H72         3.4870    3.1900    1.3730 h1        1 MOL      0.084139
    170 H73         1.5290    1.5760    2.2560 hc        1 MOL      0.076098
    171 H74         2.2710    0.2930    1.2670 hc        1 MOL      0.076098
    172 H75         2.0850    1.7100   -0.6400 hc        1 MOL     -0.088033
    173 H76         1.2340    2.9560    0.2810 hc        1 MOL     -0.088033
    174 N15         5.1340    0.7860    2.7730 n         1 MOL     -0.040659
    175 C58         6.0970    0.3870    3.8930 c3        1 MOL     -0.288436
    176 H77         6.3610   -0.6650    3.7860 h1        1 MOL      0.108620
    177 H78         6.9980    0.9960    3.8320 h1        1 MOL      0.108620
    178 H79         5.6160    0.5440    4.8590 h1        1 MOL      0.108620
    179 H80         4.9100    0.0730    2.0880 hn        1 MOL      0.053036
    180 Ca1        -2.3910   -0.2300   -1.2250 Ca        1 MOL      1.753784
    181 O27        -1.1830    0.6380   -3.5900 oh        1 MOL     -0.918626
    182 H81        -1.8800    1.2020   -3.9320 ho        1 MOL      0.414019
    183 H82        -0.3950    0.9250   -4.0380 ho        1 MOL      0.414019
@<TRIPOS>BOND
     1    1    2 1   
     2    1    4 1   
     3    1    5 1   
     4    1    6 1   
     5    2    3 2   
     6    2    7 1   
     7    7    8 1   
     8    7   15 1   
     9    8    9 1   
    10    8   11 1   
    11    8   16 1   
    12    9   10 2   
    13    9   19 1   
    14   11   12 1   
    15   11   17 1   
    16   11   18 1   
    17   12   13 1   
    18   12   14 1   
    19   19   20 1   
    20   19   27 1   
    21   20   21 1   
    22   20   23 1   
    23   20   28 1   
    24   21   22 2   
    25   21   38 1   
    26   23   24 1   
    27   23   25 1   
    28   23   29 1   
    29   24   26 1   
    30   24   30 1   
    31   24   31 1   
    32   25   32 1   
    33   25   33 1   
    34   25   34 1   
    35   26   35 1   
    36   26   36 1   
    37   26   37 1   
    38   38   39 1   
    39   38   46 1   
    40   39   40 1   
    41   39   42 1   
    42   39   47 1   
    43   40   41 2   
    44   40   50 1   
    45   42   43 1   
    46   42   48 1   
    47   42   49 1   
    48   43   44 1   
    49   43   45 1   
    50   50   51 1   
    51   50   54 1   
    52   51   52 1   
    53   51   55 1   
    54   51   56 1   
    55   52   53 2   
    56   52   57 1   
    57   57   58 1   
    58   57   65 1   
    59   58   59 1   
    60   58   61 1   
    61   58   66 1   
    62   59   60 2   
    63   59   69 1   
    64   61   62 1   
    65   61   67 1   
    66   61   68 1   
    67   62   63 1   
    68   62   64 1   
    69   69   70 1   
    70   69   73 1   
    71   70   71 1   
    72   70   74 1   
    73   70   75 1   
    74   71   72 2   
    75   71   76 1   
    76   76   77 1   
    77   76   85 1   
    78   77   78 1   
    79   77   80 1   
    80   77   86 1   
    81   78   79 2   
    82   78   93 1   
    83   80   81 1   
    84   80   87 1   
    85   80   88 1   
    86   81   82 1   
    87   81   89 1   
    88   81   90 1   
    89   82   83 1   
    90   82   84 2   
    91   83   91 1   
    92   83   92 1   
    93   93   94 1   
    94   93  100 1   
    95   94   95 1   
    96   94   97 1   
    97   94  101 1   
    98   95   96 2   
    99   95  109 1   
   100   97   98 1   
   101   97   99 1   
   102   97  102 1   
   103   98  103 1   
   104   98  104 1   
   105   98  105 1   
   106   99  106 1   
   107   99  107 1   
   108   99  108 1   
   109  109  110 1   
   110  109  117 1   
   111  110  111 1   
   112  110  113 1   
   113  110  118 1   
   114  111  112 2   
   115  111  123 1   
   116  113  114 1   
   117  113  119 1   
   118  113  120 1   
   119  114  115 1   
   120  114  116 2   
   121  115  121 1   
   122  115  122 1   
   123  123  124 1   
   124  123  135 1   
   125  124  125 1   
   126  124  127 1   
   127  124  136 1   
   128  125  126 2   
   129  125  144 1   
   130  127  128 1   
   131  127  137 1   
   132  127  138 1   
   133  128  129 ar  
   134  128  130 ar  
   135  129  131 ar  
   136  129  139 1   
   137  130  132 ar  
   138  130  140 1   
   139  131  133 ar  
   140  131  141 1   
   141  132  133 ar  
   142  132  142 1   
   143  133  134 1   
   144  134  143 1   
   145  144  145 1   
   146  144  153 1   
   147  145  146 1   
   148  145  148 1   
   149  145  154 1   
   150  146  147 2   
   151  146  159 1   
   152  148  149 1   
   153  148  155 1   
   154  148  156 1   
   155  149  150 1   
   156  149  157 1   
   157  149  158 1   
   158  150  151 1   
   159  150  152 1   
   160  159  160 1   
   161  159  168 1   
   162  160  161 1   
   163  160  163 1   
   164  160  169 1   
   165  161  162 2   
   166  161  174 1   
   167  163  164 1   
   168  163  170 1   
   169  163  171 1   
   170  164  165 1   
   171  164  172 1   
   172  164  173 1   
   173  165  166 1   
   174  165  167 1   
   175  174  175 1   
   176  174  179 1   
   177  175  176 1   
   178  175  177 1   
   179  175  178 1   
   180  181  182 1   
   181  181  183 1   
@<TRIPOS>SUBSTRUCTURE
     1 MOL         1 TEMP              0 ****  ****    0 ROOT
