@<TRIPOS>MOLECULE
MOL
  179   176     1     0     0
SMALL
resp


@<TRIPOS>ATOM
      1 C1         -2.9480   -2.0630    4.8610 c3        1 MOL     -0.482270
      2 C2         -2.1650   -1.9770    3.5700 c         1 MOL      0.792593
      3 O1         -2.7580   -2.0280    2.5480 o         1 MOL     -0.546993
      4 H1         -3.6760   -1.2520    4.8980 hc        1 MOL      0.116492
      5 H2         -3.4670   -3.0190    4.9090 hc        1 MOL      0.116492
      6 H3         -2.2650   -1.9760    5.7060 hc        1 MOL      0.116492
      7 N1         -0.8410   -2.1220    3.6250 n         1 MOL     -0.585009
      8 C3          0.0710   -2.1260    2.4810 c3        1 MOL      0.147478
      9 C4          0.0680   -3.5630    1.7690 c         1 MOL      0.488120
     10 O2          0.6700   -4.4970    2.3490 o         1 MOL     -0.545404
     11 C5          1.5040   -1.7140    2.8990 c3        1 MOL     -0.097708
     12 C6          2.5150   -1.7450    1.6890 c         1 MOL      0.680835
     13 O3          3.7160   -1.8420    2.1230 o         1 MOL     -0.652830
     14 O4          2.1780   -1.9070    0.4630 o         1 MOL     -0.652830
     15 H4         -0.5440   -2.1340    4.5830 hn        1 MOL      0.307530
     16 H5         -0.3040   -1.3580    1.8030 h1        1 MOL     -0.104597
     17 H6          1.9070   -2.2580    3.7530 hc        1 MOL      0.047990
     18 H7          1.4520   -0.6740    3.2290 hc        1 MOL      0.047990
     19 N2         -0.4710   -3.7030    0.5580 n         1 MOL     -0.328665
     20 C7         -0.8940   -5.0010    0.0190 c3        1 MOL      0.034964
     21 C8          0.0940   -5.6050   -0.9170 c         1 MOL      0.448864
     22 O5         -0.0750   -6.7920   -1.1310 o         1 MOL     -0.538434
     23 C9         -2.2830   -4.8750   -0.6800 c3        1 MOL     -0.144975
     24 C10        -3.4940   -4.4950    0.1750 c3        1 MOL      0.180362
     25 C11        -3.5300   -5.2550    1.4600 c3        1 MOL     -0.210943
     26 C12        -4.8940   -5.2300    1.9930 c3        1 MOL      0.268554
     27 N3         -5.0230   -5.9370    3.2720 n4        1 MOL     -0.397733
     28 H8         -0.9910   -2.9230    0.1580 hn        1 MOL      0.256359
     29 H9         -0.9730   -5.6940    0.8640 h1        1 MOL      0.074485
     30 H10        -2.4160   -5.8720   -1.0950 hc        1 MOL      0.054525
     31 H11        -2.3490   -4.0360   -1.3740 hc        1 MOL      0.054525
     32 H12        -4.3800   -4.7140   -0.4330 hc        1 MOL      0.011163
     33 H13        -3.4950   -3.4510    0.4770 hc        1 MOL      0.011163
     34 H14        -2.8460   -4.7110    2.1160 hc        1 MOL      0.044576
     35 H15        -3.1690   -6.2740    1.3190 hc        1 MOL      0.044576
     36 H16        -5.5260   -5.6800    1.2230 hx        1 MOL      0.014056
     37 H17        -5.2120   -4.1860    2.0020 hx        1 MOL      0.014056
     38 H18        -4.4800   -5.4570    3.9830 hn        1 MOL      0.326047
     39 H19        -5.9810   -5.9840    3.5790 hn        1 MOL      0.326047
     40 H20        -4.6460   -6.8530    3.1110 hn        1 MOL      0.326047
     41 N4          1.0260   -4.7900   -1.4460 n         1 MOL     -0.253244
     42 C13         2.1690   -5.2270   -2.2810 c3        1 MOL      0.219896
     43 C14         3.4360   -5.3390   -1.4890 c         1 MOL      0.379234
     44 O6          4.3210   -6.0670   -1.8710 o         1 MOL     -0.521700
     45 C15         2.2920   -4.5180   -3.6450 c3        1 MOL     -0.371125
     46 C16         2.3290   -3.0050   -3.5650 c         1 MOL      0.878753
     47 O7          2.3400   -2.3890   -2.4630 o         1 MOL     -0.728650
     48 O8          2.1640   -2.4230   -4.6720 o         1 MOL     -0.728650
     49 H21         1.1450   -3.8390   -1.1270 hn        1 MOL      0.094891
     50 H22         1.9160   -6.2450   -2.5800 h1        1 MOL      0.036326
     51 H23         1.3910   -4.7390   -4.2160 hc        1 MOL      0.106995
     52 H24         3.2360   -4.8070   -4.1110 hc        1 MOL      0.106995
     53 N5          3.6350   -4.4580   -0.4800 n         1 MOL     -0.175370
     54 C17         4.8150   -4.3890    0.3750 c3        1 MOL     -0.195962
     55 C18         5.8470   -3.3340    0.1440 c         1 MOL      0.518530
     56 O9          7.0090   -3.3520    0.6260 o         1 MOL     -0.580995
     57 H25         2.9330   -3.7370   -0.3440 hn        1 MOL      0.180922
     58 H26         5.3110   -5.3540    0.2440 h1        1 MOL      0.119022
     59 H27         4.5610   -4.3430    1.4320 h1        1 MOL      0.119022
     60 N6          5.4570   -2.3510   -0.6650 n         1 MOL     -0.121943
     61 C19         6.2440   -1.1720   -1.0900 c3        1 MOL     -0.238090
     62 C20         6.5550   -0.0320   -0.0370 c         1 MOL      0.428477
     63 O10         7.1560    0.9800   -0.4190 o         1 MOL     -0.463674
     64 C21         5.7210   -0.6080   -2.4460 c3        1 MOL     -0.142992
     65 C22         4.6180    0.3680   -2.4090 c         1 MOL      0.509971
     66 N7          4.4660    1.1500   -3.4850 n         1 MOL     -0.767944
     67 O11         3.8550    0.5030   -1.4260 o         1 MOL     -0.342961
     68 H28         4.5620   -2.4340   -1.1320 hn        1 MOL      0.119019
     69 H29         7.2480   -1.5940   -1.2400 h1        1 MOL      0.154093
     70 H30         5.4890   -1.3860   -3.1700 hc        1 MOL      0.097217
     71 H31         6.5250   -0.0490   -2.9130 hc        1 MOL      0.097217
     72 H32         5.1880    1.1300   -4.1880 hn        1 MOL      0.370993
     73 H33         3.7360    1.8440   -3.5790 hn        1 MOL      0.370993
     74 N8          6.0840   -0.2040    1.2360 n         1 MOL     -0.193505
     75 C23         6.2760    0.8120    2.2640 c3        1 MOL     -0.337420
     76 C24         5.3600    2.1050    2.1250 c         1 MOL      0.477614
     77 O12         5.4210    3.0720    2.9340 o         1 MOL     -0.549036
     78 H34         5.5450   -1.0190    1.4540 hn        1 MOL      0.295363
     79 H35         7.3240    1.1050    2.2820 h1        1 MOL      0.157443
     80 H36         6.0330    0.3670    3.2310 h1        1 MOL      0.157443
     81 N9          4.3460    1.9820    1.2820 n         1 MOL      0.082641
     82 C25         3.1970    2.8970    1.3190 c3        1 MOL      0.108615
     83 C26         1.8330    2.1320    1.3040 c         1 MOL      0.453139
     84 O13         1.6180    1.0770    0.7140 o         1 MOL     -0.516576
     85 C27         3.2920    4.0140    0.2480 c3        1 MOL      0.045734
     86 C28         4.5620    4.8380    0.2710 ca        1 MOL     -0.135820
     87 C29         5.6450    4.5030   -0.6120 ca        1 MOL     -0.030235
     88 C30         4.6240    6.0410    0.9710 ca        1 MOL     -0.030235
     89 C31         6.7060    5.3950   -0.7790 ca        1 MOL     -0.326414
     90 C32         5.7030    6.8930    0.8300 ca        1 MOL     -0.326414
     91 C33         6.7300    6.6230   -0.0690 ca        1 MOL      0.411831
     92 O14         7.6280    7.5830   -0.3770 oh        1 MOL     -0.488026
     93 H37         4.1970    1.1460    0.7430 hn        1 MOL     -0.152463
     94 H38         3.2240    3.4550    2.2540 h1        1 MOL     -0.005196
     95 H39         2.4430    4.6790    0.3670 hc        1 MOL     -0.000928
     96 H40         3.1490    3.5040   -0.7080 hc        1 MOL     -0.000928
     97 H41         5.5400    3.6020   -1.1970 ha        1 MOL      0.095206
     98 H42         3.7700    6.4180    1.5060 ha        1 MOL      0.095206
     99 H43         7.5120    5.1330   -1.4500 ha        1 MOL      0.155938
    100 H44         5.7600    7.8350    1.3570 ha        1 MOL      0.155938
    101 H45         7.5150    8.3520    0.1960 ho        1 MOL      0.349949
    102 N10         0.9210    2.8110    2.0130 n         1 MOL     -0.503164
    103 C34        -0.5330    2.4370    1.9770 c3        1 MOL      0.004246
    104 C35        -1.2500    3.4570    1.0680 c         1 MOL      0.434517
    105 O15        -1.3310    4.6810    1.3410 o         1 MOL     -0.535096
    106 C36        -1.1360    2.5810    3.4450 c3        1 MOL     -0.053839
    107 C37        -0.3690    1.6970    4.4310 c3        1 MOL      0.182807
    108 C38        -2.6210    2.2300    3.5060 c3        1 MOL     -0.053776
    109 C39        -0.6820    2.0650    5.9010 c3        1 MOL     -0.148926
    110 H46         1.3160    3.6870    2.3520 hn        1 MOL      0.336075
    111 H47        -0.6200    1.3940    1.6540 h1        1 MOL      0.255769
    112 H48        -1.2130    3.6210    3.7740 hc        1 MOL      0.064352
    113 H49         0.6970    1.7330    4.2140 hc        1 MOL     -0.058475
    114 H50        -0.6680    0.6490    4.3490 hc        1 MOL     -0.058475
    115 H51        -3.0020    2.0610    4.5140 hc        1 MOL      0.011338
    116 H52        -3.2970    3.0110    3.1640 hc        1 MOL      0.011338
    117 H53        -2.8790    1.3220    2.9740 hc        1 MOL      0.011338
    118 H54        -0.6400    3.1470    6.0430 hc        1 MOL      0.032624
    119 H55        -1.6280    1.6930    6.2860 hc        1 MOL      0.032624
    120 H56         0.0220    1.5780    6.5820 hc        1 MOL      0.032624
    121 N11        -1.8050    2.8960   -0.0260 n         1 MOL     -0.247772
    122 C40        -2.6930    3.5720   -0.9400 c3        1 MOL      0.113816
    123 C41        -4.1760    3.6100   -0.6130 c         1 MOL      0.447086
    124 O16        -4.6530    2.9370    0.3190 o         1 MOL     -0.417083
    125 C42        -2.4230    2.9680   -2.2730 c3        1 MOL      0.068985
    126 O17        -2.9560    3.7050   -3.3110 oh        1 MOL     -0.638830
    127 H57        -1.5880    1.9280   -0.1980 hn        1 MOL      0.172109
    128 H58        -2.3590    4.6160   -0.9380 h1        1 MOL      0.061636
    129 H59        -3.0290    2.0570   -2.3350 h1        1 MOL      0.073098
    130 H60        -1.3570    2.8520   -2.4800 h1        1 MOL      0.073098
    131 H61        -2.7620    3.2140   -4.1200 ho        1 MOL      0.408480
    132 N12        -4.9800    4.4600   -1.3410 n         1 MOL     -0.494223
    133 C43        -6.4370    4.5960   -1.0620 c3        1 MOL      0.193447
    134 C44        -7.2320    3.3470   -1.3940 c         1 MOL      0.493887
    135 O18        -8.0750    3.0620   -0.5690 o         1 MOL     -0.515850
    136 C45        -6.9180    5.7960   -1.9630 c3        1 MOL     -0.391777
    137 H62        -4.5050    4.8710   -2.1380 hn        1 MOL      0.310064
    138 H63        -6.6630    4.7690   -0.0120 h1        1 MOL      0.087893
    139 H64        -7.9970    5.7450   -2.1090 hc        1 MOL      0.114189
    140 H65        -6.6680    6.7380   -1.4850 hc        1 MOL      0.114189
    141 H66        -6.4170    5.7620   -2.9300 hc        1 MOL      0.114189
    142 N13        -6.9410    2.5570   -2.4700 n         1 MOL     -0.424472
    143 C46        -7.6070    1.3010   -2.7740 c3        1 MOL      0.129278
    144 C47        -7.1700    0.2390   -1.8500 c         1 MOL      0.393154
    145 O19        -7.9040   -0.6900   -1.5830 o         1 MOL     -0.496927
    146 C48        -7.3910    0.8770   -4.1800 c3        1 MOL     -0.191013
    147 H67        -6.1810    2.8580   -3.0610 hn        1 MOL      0.258132
    148 H68        -8.6510    1.4640   -2.4850 h1        1 MOL      0.087429
    149 H69        -7.5180    1.7970   -4.7510 hc        1 MOL      0.059789
    150 H70        -6.3330    0.6730   -4.3420 hc        1 MOL      0.059789
    151 H71        -8.0410    0.0820   -4.5340 hc        1 MOL      0.059789
    152 N14        -5.8920    0.2610   -1.3770 n         1 MOL     -0.207359
    153 C49        -5.3640   -0.6750   -0.4400 c3        1 MOL     -0.054314
    154 C50        -5.9840   -0.4100    1.0140 c         1 MOL      0.407657
    155 O20        -6.2180   -1.3490    1.6910 o         1 MOL     -0.542822
    156 C51        -3.8220   -0.4680   -0.4190 c3        1 MOL      0.115486
    157 C52        -3.0220   -0.7790   -1.7090 c3        1 MOL     -0.141400
    158 C53        -1.5680   -0.6980   -1.3720 c         1 MOL      0.688456
    159 O21        -0.8200   -1.7360   -1.5390 o         1 MOL     -0.675395
    160 O22        -1.0600    0.3820   -1.0270 o         1 MOL     -0.675395
    161 H72        -5.3510    1.1050   -1.4990 hn        1 MOL      0.185222
    162 H73        -5.5790   -1.7030   -0.7010 h1        1 MOL      0.090575
    163 H74        -3.4680   -1.1540    0.3460 hc        1 MOL     -0.088241
    164 H75        -3.6150    0.5860   -0.2460 hc        1 MOL     -0.088241
    165 H76        -3.2390   -0.1290   -2.5570 hc        1 MOL      0.010682
    166 H77        -3.3150   -1.7980   -1.9730 hc        1 MOL      0.010682
    167 N15        -6.2400    0.8140    1.4290 n         1 MOL     -0.035186
    168 C54        -7.0600    1.1050    2.6110 c3        1 MOL     -0.281370
    169 H78        -7.6660    1.9910    2.4230 h1        1 MOL      0.110968
    170 H79        -7.7130    0.2570    2.8190 h1        1 MOL      0.110968
    171 H80        -6.4120    1.2840    3.4690 h1        1 MOL      0.110968
    172 H81        -5.9350    1.6270    0.9110 hn        1 MOL      0.115151
    173 Ca1         1.3610   -0.3720   -1.4210 Ca        1 MOL      1.608118
    174 O23         1.1480    2.1830   -2.3490 oh        1 MOL     -0.906968
    175 H82         1.1550    3.0860   -2.0250 ho        1 MOL      0.419281
    176 H83         0.9730    2.2730   -3.2860 ho        1 MOL      0.419281
    177 O24         1.0490   -0.3050   -4.0140 oh        1 MOL     -0.906968
    178 H84         0.8970    0.2700   -4.7630 ho        1 MOL      0.419281
    179 H85         1.3360   -1.1290   -4.4120 ho        1 MOL      0.419281
@<TRIPOS>BOND
     1    1    2 1   
     2    1    4 1   
     3    1    5 1   
     4    1    6 1   
     5    2    3 2   
     6    2    7 1   
     7    7    8 1   
     8    7   15 1   
     9    8    9 1   
    10    8   11 1   
    11    8   16 1   
    12    9   10 2   
    13    9   19 1   
    14   11   12 1   
    15   11   17 1   
    16   11   18 1   
    17   12   13 1   
    18   12   14 1   
    19   19   20 1   
    20   19   28 1   
    21   20   21 1   
    22   20   23 1   
    23   20   29 1   
    24   21   22 2   
    25   21   41 1   
    26   23   24 1   
    27   23   30 1   
    28   23   31 1   
    29   24   25 1   
    30   24   32 1   
    31   24   33 1   
    32   25   26 1   
    33   25   34 1   
    34   25   35 1   
    35   26   27 1   
    36   26   36 1   
    37   26   37 1   
    38   27   38 1   
    39   27   39 1   
    40   27   40 1   
    41   41   42 1   
    42   41   49 1   
    43   42   43 1   
    44   42   45 1   
    45   42   50 1   
    46   43   44 2   
    47   43   53 1   
    48   45   46 1   
    49   45   51 1   
    50   45   52 1   
    51   46   47 1   
    52   46   48 1   
    53   53   54 1   
    54   53   57 1   
    55   54   55 1   
    56   54   58 1   
    57   54   59 1   
    58   55   56 2   
    59   55   60 1   
    60   60   61 1   
    61   60   68 1   
    62   61   62 1   
    63   61   64 1   
    64   61   69 1   
    65   62   63 2   
    66   62   74 1   
    67   64   65 1   
    68   64   70 1   
    69   64   71 1   
    70   65   66 1   
    71   65   67 2   
    72   66   72 1   
    73   66   73 1   
    74   74   75 1   
    75   74   78 1   
    76   75   76 1   
    77   75   79 1   
    78   75   80 1   
    79   76   77 2   
    80   76   81 1   
    81   81   82 1   
    82   81   93 1   
    83   82   83 1   
    84   82   85 1   
    85   82   94 1   
    86   83   84 2   
    87   83  102 1   
    88   85   86 1   
    89   85   95 1   
    90   85   96 1   
    91   86   87 ar  
    92   86   88 ar  
    93   87   89 ar  
    94   87   97 1   
    95   88   90 ar  
    96   88   98 1   
    97   89   91 ar  
    98   89   99 1   
    99   90   91 ar  
   100   90  100 1   
   101   91   92 1   
   102   92  101 1   
   103  102  103 1   
   104  102  110 1   
   105  103  104 1   
   106  103  106 1   
   107  103  111 1   
   108  104  105 2   
   109  104  121 1   
   110  106  107 1   
   111  106  108 1   
   112  106  112 1   
   113  107  109 1   
   114  107  113 1   
   115  107  114 1   
   116  108  115 1   
   117  108  116 1   
   118  108  117 1   
   119  109  118 1   
   120  109  119 1   
   121  109  120 1   
   122  121  122 1   
   123  121  127 1   
   124  122  123 1   
   125  122  125 1   
   126  122  128 1   
   127  123  124 2   
   128  123  132 1   
   129  125  126 1   
   130  125  129 1   
   131  125  130 1   
   132  126  131 1   
   133  132  133 1   
   134  132  137 1   
   135  133  134 1   
   136  133  136 1   
   137  133  138 1   
   138  134  135 2   
   139  134  142 1   
   140  136  139 1   
   141  136  140 1   
   142  136  141 1   
   143  142  143 1   
   144  142  147 1   
   145  143  144 1   
   146  143  146 1   
   147  143  148 1   
   148  144  145 2   
   149  144  152 1   
   150  146  149 1   
   151  146  150 1   
   152  146  151 1   
   153  152  153 1   
   154  152  161 1   
   155  153  154 1   
   156  153  156 1   
   157  153  162 1   
   158  154  155 2   
   159  154  167 1   
   160  156  157 1   
   161  156  163 1   
   162  156  164 1   
   163  157  158 1   
   164  157  165 1   
   165  157  166 1   
   166  158  159 1   
   167  158  160 1   
   168  167  168 1   
   169  167  172 1   
   170  168  169 1   
   171  168  170 1   
   172  168  171 1   
   173  174  175 1   
   174  174  176 1   
   175  177  178 1   
   176  177  179 1   
@<TRIPOS>SUBSTRUCTURE
     1 MOL         1 TEMP              0 ****  ****    0 ROOT
