@<TRIPOS>MOLECULE
MOL
  189   185     1     0     0
SMALL
resp


@<TRIPOS>ATOM
      1 C1          0.4960   -5.0330    5.5330 c3        1 MOL     -0.451598
      2 C2          1.0330   -4.2930    4.3260 c         1 MOL      0.745624
      3 O1          1.0810   -3.0510    4.3150 o         1 MOL     -0.609342
      4 H1          1.2090   -4.9540    6.3540 hc        1 MOL      0.116974
      5 H2         -0.4560   -4.5950    5.8350 hc        1 MOL      0.116974
      6 H3          0.3500   -6.0830    5.2810 hc        1 MOL      0.116974
      7 N1          1.4820   -5.0040    3.2570 n         1 MOL     -0.601209
      8 C3          2.0350   -4.3470    2.0680 c3        1 MOL      0.211361
      9 C4          1.9360   -5.2940    0.8640 c         1 MOL      0.417787
     10 O2          2.2730   -6.4930    0.9520 o         1 MOL     -0.570949
     11 C5          3.5240   -4.1030    2.3940 c3        1 MOL     -0.265853
     12 C6          4.2610   -3.3720    1.2570 c         1 MOL      0.818751
     13 O3          5.4850   -3.2200    1.3860 o         1 MOL     -0.718392
     14 O4          3.6350   -2.6980    0.3800 o         1 MOL     -0.718392
     15 H4          1.2780   -5.9950    3.2270 hn        1 MOL      0.312014
     16 H5          1.4760   -3.4330    1.8810 h1        1 MOL      0.047934
     17 H6          4.0520   -5.0170    2.6610 hc        1 MOL      0.054973
     18 H7          3.5360   -3.3040    3.1360 hc        1 MOL      0.054973
     19 N2          1.5280   -4.6750   -0.2580 n         1 MOL     -0.009094
     20 C7          1.4450   -5.4470   -1.5550 c3        1 MOL     -0.046097
     21 C8          2.3750   -4.8900   -2.6390 c         1 MOL      0.523328
     22 O5          2.5540   -5.5730   -3.6470 o         1 MOL     -0.583362
     23 C9         -0.0730   -5.6380   -1.9880 c3        1 MOL      0.147333
     24 C10        -0.8460   -4.2880   -2.0330 c3        1 MOL      0.039185
     25 C11        -0.7400   -6.6400   -1.0760 c3        1 MOL     -0.271035
     26 C12        -0.1830   -3.2150   -2.8590 c3        1 MOL     -0.268348
     27 H8          1.2450   -3.7140   -0.1910 hn        1 MOL      0.009547
     28 H9          1.8770   -6.4320   -1.3710 h1        1 MOL      0.071253
     29 H10         0.0490   -5.9810   -3.0150 hc        1 MOL     -0.007348
     30 H11        -0.9260   -3.8600   -1.0330 hc        1 MOL     -0.002673
     31 H12        -1.8420   -4.4890   -2.4010 hc        1 MOL     -0.002673
     32 H13        -1.8010   -6.5980   -1.3210 hc        1 MOL      0.053424
     33 H14        -0.3550   -7.6260   -1.3200 hc        1 MOL      0.053424
     34 H15        -0.5900   -6.4250   -0.0110 hc        1 MOL      0.053424
     35 H16        -0.8360   -2.3560   -3.0260 hc        1 MOL      0.081943
     36 H17         0.5890   -2.7940   -2.2240 hc        1 MOL      0.081943
     37 H18         0.1490   -3.5750   -3.8280 hc        1 MOL      0.081943
     38 N3          2.9810   -3.7070   -2.4500 n         1 MOL     -0.359810
     39 C13         3.7230   -3.0460   -3.5460 c3        1 MOL      0.125063
     40 C14         5.1240   -2.5230   -3.0440 c         1 MOL      0.438491
     41 O6          5.7690   -2.0170   -3.9550 o         1 MOL     -0.569517
     42 C15         2.9530   -1.8980   -4.2350 c3        1 MOL     -0.110336
     43 C16         2.3430   -0.8490   -3.3470 c         1 MOL      0.754574
     44 O7          2.9270   -0.6810   -2.2350 o         1 MOL     -0.699404
     45 O8          1.2670   -0.2840   -3.6680 o         1 MOL     -0.699404
     46 H19         2.8720   -3.1860   -1.5860 hn        1 MOL      0.031019
     47 H20         4.0310   -3.7840   -4.2770 h1        1 MOL      0.072551
     48 H21         2.1510   -2.3420   -4.8340 hc        1 MOL      0.014750
     49 H22         3.6520   -1.4210   -4.9260 hc        1 MOL      0.014750
     50 N4          5.5890   -2.6010   -1.8070 n         1 MOL     -0.282769
     51 C17         6.9400   -2.1970   -1.3420 c3        1 MOL     -0.223794
     52 C18         7.2570   -0.7260   -1.4800 c         1 MOL      0.437784
     53 O9          8.4100   -0.2790   -1.2560 o         1 MOL     -0.600958
     54 H23         5.0480   -3.0030   -1.0530 hn        1 MOL      0.248358
     55 H24         7.5960   -2.8170   -1.9460 h1        1 MOL      0.132247
     56 H25         7.1670   -2.4730   -0.3130 h1        1 MOL      0.132247
     57 N5          6.2980    0.1440   -1.8190 n         1 MOL     -0.124944
     58 C19         6.5070    1.5400   -2.1750 c3        1 MOL      0.057653
     59 C20         6.9560    2.3490   -0.9530 c         1 MOL      0.419548
     60 O10         7.7300    3.3290   -1.1410 o         1 MOL     -0.599991
     61 C21         5.2290    2.1430   -2.8570 c3        1 MOL     -0.446622
     62 C22         3.9620    2.1730   -2.0050 c         1 MOL      0.868675
     63 O11         3.9590    1.7490   -0.8690 o         1 MOL     -0.752493
     64 O12         2.9280    2.7100   -2.5770 o         1 MOL     -0.752493
     65 H26         5.4010   -0.2750   -2.0050 hn        1 MOL      0.219919
     66 H27         7.3480    1.5340   -2.8830 h1        1 MOL      0.073412
     67 H28         4.9510    1.5790   -3.7520 hc        1 MOL      0.112760
     68 H29         5.4550    3.1900   -3.0510 hc        1 MOL      0.112760
     69 N6          6.6640    1.9600    0.2400 n         1 MOL     -0.026544
     70 C23         7.0270    2.5880    1.5590 c3        1 MOL     -0.330949
     71 C24         5.9830    3.6240    1.9070 c         1 MOL      0.660100
     72 O13         6.2110    4.4280    2.8120 o         1 MOL     -0.625291
     73 H30         6.0180    1.1900    0.2560 hn        1 MOL      0.113403
     74 H31         8.0130    3.0470    1.4960 h1        1 MOL      0.129881
     75 H32         6.9590    1.7420    2.2320 h1        1 MOL      0.129881
     76 N7          4.8150    3.6360    1.3350 n         1 MOL     -0.374150
     77 C25         3.6490    4.4050    1.7400 c3        1 MOL      0.010112
     78 C26         2.4100    3.5070    1.6610 c         1 MOL      0.488275
     79 O14         2.5170    2.3450    1.3170 o         1 MOL     -0.506152
     80 C27         3.4190    5.7250    0.8980 c3        1 MOL     -0.249328
     81 C28         3.0260    5.5660   -0.5620 c3        1 MOL     -0.157928
     82 C29         2.6610    6.9960   -1.0880 c         1 MOL      0.683102
     83 N8          2.2230    7.1460   -2.3180 n         1 MOL     -0.817463
     84 O15         2.6880    7.9870   -0.3630 o         1 MOL     -0.600472
     85 H33         4.6840    2.9410    0.6110 hn        1 MOL      0.250200
     86 H34         3.8190    4.7290    2.7660 h1        1 MOL      0.064332
     87 H35         4.4240    6.1460    0.9190 hc        1 MOL      0.101442
     88 H36         2.8140    6.3570    1.5400 hc        1 MOL      0.101442
     89 H37         2.2430    4.8380   -0.7720 hc        1 MOL      0.112677
     90 H38         3.9260    5.4420   -1.1660 hc        1 MOL      0.112677
     91 H39         1.9660    6.3610   -2.9010 hn        1 MOL      0.361332
     92 H40         2.0380    8.0980   -2.6090 hn        1 MOL      0.361332
     93 N9          1.2890    3.9470    2.2000 n         1 MOL     -0.392508
     94 C30         0.0650    3.1940    2.4700 c3        1 MOL     -0.003891
     95 C31        -1.0030    3.4340    1.3840 c         1 MOL      0.550019
     96 O16        -1.2940    4.6030    1.1980 o         1 MOL     -0.602785
     97 C32        -0.5140    3.4150    3.9280 c3        1 MOL      0.332606
     98 C33        -1.6330    2.3620    4.1840 c3        1 MOL     -0.406401
     99 C34         0.4870    3.3160    5.0690 c3        1 MOL     -0.406401
    100 H41         1.2970    4.8940    2.5370 hn        1 MOL      0.268778
    101 H42         0.3190    2.1410    2.3280 h1        1 MOL      0.065434
    102 H43        -1.0560    4.3580    3.9830 hc        1 MOL     -0.046843
    103 H44        -1.2260    1.3540    4.2080 hc        1 MOL      0.091066
    104 H45        -2.0530    2.3950    5.1980 hc        1 MOL      0.091066
    105 H46        -2.4480    2.4180    3.4660 hc        1 MOL      0.091066
    106 H47         0.9430    2.3310    4.9830 hc        1 MOL      0.091066
    107 H48         1.1220    4.1690    4.8380 hc        1 MOL      0.091066
    108 H49         0.0150    3.4420    6.0420 hc        1 MOL      0.091066
    109 N10        -1.6340    2.4230    0.7790 n         1 MOL     -0.266334
    110 C35        -2.7860    2.4470   -0.0600 c3        1 MOL      0.200030
    111 C36        -4.0900    2.2050    0.7310 c         1 MOL      0.166419
    112 O17        -4.0720    1.5820    1.8140 o         1 MOL     -0.304803
    113 C37        -2.6950    1.3790   -1.1990 c3        1 MOL     -0.270650
    114 C38        -3.6390    1.5030   -2.3050 c         1 MOL      0.818024
    115 N11        -3.7910    2.6220   -2.9430 n         1 MOL     -0.895363
    116 O18        -4.4060    0.5700   -2.4670 o         1 MOL     -0.651938
    117 H50        -1.3580    1.4780    1.0310 hn        1 MOL      0.260736
    118 H51        -2.8910    3.4040   -0.5720 h1        1 MOL     -0.026427
    119 H52        -2.8970    0.3880   -0.7970 hc        1 MOL      0.064601
    120 H53        -1.6800    1.4570   -1.5870 hc        1 MOL      0.064601
    121 H54        -3.1940    3.3670   -2.6290 hn        1 MOL      0.405906
    122 H55        -4.6020    2.6240   -3.5430 hn        1 MOL      0.405906
    123 N12        -5.2390    2.5340    0.1040 n         1 MOL     -0.183834
    124 C39        -6.6070    2.2990    0.7190 c3        1 MOL      0.125737
    125 C40        -6.7400    0.7330    0.9410 c         1 MOL      0.277424
    126 O19        -7.2750    0.2920    1.9610 o         1 MOL     -0.539003
    127 C41        -7.7850    2.9090   -0.0470 c3        1 MOL     -0.298003
    128 C42        -7.5980    2.7390   -1.5790 ca        1 MOL     -0.040522
    129 C43        -7.0460    3.7400   -2.3890 ca        1 MOL     -0.062956
    130 C44        -7.9070    1.5260   -2.2500 ca        1 MOL     -0.062956
    131 C45        -6.8680    3.6250   -3.7160 ca        1 MOL     -0.300504
    132 C46        -7.7500    1.3580   -3.6190 ca        1 MOL     -0.300504
    133 C47        -7.2630    2.4080   -4.4010 ca        1 MOL      0.361141
    134 O20        -7.0770    2.1740   -5.7280 oh        1 MOL     -0.560921
    135 H56        -5.2500    3.0750   -0.7440 hn        1 MOL      0.118340
    136 H57        -6.6020    2.7620    1.6990 h1        1 MOL      0.047828
    137 H58        -7.8070    3.9460    0.2920 hc        1 MOL      0.121551
    138 H59        -8.6710    2.3910    0.3140 hc        1 MOL      0.121551
    139 H60        -6.9430    4.7190   -1.9410 ha        1 MOL      0.087881
    140 H61        -8.2700    0.6700   -1.6940 ha        1 MOL      0.087881
    141 H62        -6.4610    4.4670   -4.2470 ha        1 MOL      0.136134
    142 H63        -7.9300    0.3850   -4.0630 ha        1 MOL      0.136134
    143 H64        -7.6290    1.4490   -6.0140 ho        1 MOL      0.428266
    144 N13        -6.0950   -0.1300    0.1240 n         1 MOL      0.080571
    145 C48        -6.1420   -1.6040    0.1530 c3        1 MOL     -0.630733
    146 C49        -5.3210   -2.1900    1.3130 c         1 MOL      0.675249
    147 O21        -5.5030   -3.2830    1.7860 o         1 MOL     -0.563672
    148 C50        -5.8930   -2.3050   -1.1590 c3        1 MOL      0.115089
    149 C51        -7.0040   -2.1520   -2.1720 c3        1 MOL     -0.119495
    150 C52        -8.4130   -2.5960   -1.8620 c         1 MOL      0.762765
    151 O22        -9.3190   -2.2150   -2.6200 o         1 MOL     -0.741466
    152 O23        -8.6230   -3.3890   -0.9350 o         1 MOL     -0.741466
    153 H65        -5.6410    0.3120   -0.6620 hn        1 MOL      0.588763
    154 H66        -7.1520   -1.8970    0.4400 h1        1 MOL      0.227517
    155 H67        -5.7200   -3.3700   -0.9560 hc        1 MOL      0.021979
    156 H68        -4.9200   -2.0410   -1.5680 hc        1 MOL      0.021979
    157 H69        -6.6970   -2.8590   -2.9380 hc        1 MOL     -0.026738
    158 H70        -6.9850   -1.1090   -2.5140 hc        1 MOL     -0.026738
    159 N14        -4.3890   -1.4160    1.8400 n         1 MOL     -0.319834
    160 C53        -3.4600   -1.6680    2.9310 c3        1 MOL      0.002556
    161 C54        -3.8800   -1.0250    4.2630 c         1 MOL      0.506901
    162 O24        -3.6880   -1.6940    5.2380 o         1 MOL     -0.583580
    163 C55        -2.0380   -1.1850    2.6310 c3        1 MOL      0.026147
    164 C56        -1.4860   -1.8680    1.3730 c3        1 MOL      0.073614
    165 C57        -0.1980   -1.2720    0.8200 c         1 MOL      1.018514
    166 O25         0.6100   -1.9350    0.1570 o         1 MOL     -0.863023
    167 O26         0.1210   -0.1090    1.1460 o         1 MOL     -0.863023
    168 H71        -4.4250   -0.4850    1.4510 hn        1 MOL     -0.034780
    169 H72        -3.3730   -2.7500    3.0560 h1        1 MOL      0.084811
    170 H73        -1.3530   -1.4520    3.4380 hc        1 MOL     -0.008006
    171 H74        -2.0790   -0.1270    2.3760 hc        1 MOL     -0.008006
    172 H75        -2.1550   -1.7550    0.5190 hc        1 MOL     -0.050115
    173 H76        -1.3230   -2.9250    1.5870 hc        1 MOL     -0.050115
    174 N15        -4.6130    0.0570    4.2850 n         1 MOL     -0.127508
    175 C58        -4.9010    0.7510    5.5660 c3        1 MOL     -0.165783
    176 H77        -5.9220    0.5310    5.8760 h1        1 MOL      0.064678
    177 H78        -4.2080    0.4040    6.3310 h1        1 MOL      0.064678
    178 H79        -4.7860    1.8260    5.4320 h1        1 MOL      0.064678
    179 H80        -4.7050    0.5870    3.4330 hn        1 MOL      0.152025
    180 Ca1         2.6110   -0.1960    0.3570 Ca        1 MOL      1.793597
    181 O27         2.4160   -0.9230    2.9510 oh        1 MOL     -0.914004
    182 H81         1.7570   -1.6050    3.0700 ho        1 MOL      0.437258
    183 H82         2.8640   -0.8770    3.7910 ho        1 MOL      0.437258
    184 O28         5.0410   -0.4510    1.2090 oh        1 MOL     -0.914004
    185 H83         5.2780   -1.3770    1.2070 ho        1 MOL      0.437258
    186 H84         5.1990   -0.1770    2.1160 ho        1 MOL      0.437258
    187 O29         1.0680    1.2210   -1.3160 oh        1 MOL     -0.914004
    188 H85         1.0530    0.5260   -1.9680 ho        1 MOL      0.437258
    189 H86         1.5900    1.9120   -1.7100 ho        1 MOL      0.437258
@<TRIPOS>BOND
     1    1    2 1   
     2    1    4 1   
     3    1    5 1   
     4    1    6 1   
     5    2    3 2   
     6    2    7 1   
     7    7    8 1   
     8    7   15 1   
     9    8    9 1   
    10    8   11 1   
    11    8   16 1   
    12    9   10 2   
    13    9   19 1   
    14   11   12 1   
    15   11   17 1   
    16   11   18 1   
    17   12   13 1   
    18   12   14 1   
    19   19   20 1   
    20   19   27 1   
    21   20   21 1   
    22   20   23 1   
    23   20   28 1   
    24   21   22 2   
    25   21   38 1   
    26   23   24 1   
    27   23   25 1   
    28   23   29 1   
    29   24   26 1   
    30   24   30 1   
    31   24   31 1   
    32   25   32 1   
    33   25   33 1   
    34   25   34 1   
    35   26   35 1   
    36   26   36 1   
    37   26   37 1   
    38   38   39 1   
    39   38   46 1   
    40   39   40 1   
    41   39   42 1   
    42   39   47 1   
    43   40   41 2   
    44   40   50 1   
    45   42   43 1   
    46   42   48 1   
    47   42   49 1   
    48   43   44 1   
    49   43   45 1   
    50   50   51 1   
    51   50   54 1   
    52   51   52 1   
    53   51   55 1   
    54   51   56 1   
    55   52   53 2   
    56   52   57 1   
    57   57   58 1   
    58   57   65 1   
    59   58   59 1   
    60   58   61 1   
    61   58   66 1   
    62   59   60 2   
    63   59   69 1   
    64   61   62 1   
    65   61   67 1   
    66   61   68 1   
    67   62   63 1   
    68   62   64 1   
    69   69   70 1   
    70   69   73 1   
    71   70   71 1   
    72   70   74 1   
    73   70   75 1   
    74   71   72 2   
    75   71   76 1   
    76   76   77 1   
    77   76   85 1   
    78   77   78 1   
    79   77   80 1   
    80   77   86 1   
    81   78   79 2   
    82   78   93 1   
    83   80   81 1   
    84   80   87 1   
    85   80   88 1   
    86   81   82 1   
    87   81   89 1   
    88   81   90 1   
    89   82   83 1   
    90   82   84 2   
    91   83   91 1   
    92   83   92 1   
    93   93   94 1   
    94   93  100 1   
    95   94   95 1   
    96   94   97 1   
    97   94  101 1   
    98   95   96 2   
    99   95  109 1   
   100   97   98 1   
   101   97   99 1   
   102   97  102 1   
   103   98  103 1   
   104   98  104 1   
   105   98  105 1   
   106   99  106 1   
   107   99  107 1   
   108   99  108 1   
   109  109  110 1   
   110  109  117 1   
   111  110  111 1   
   112  110  113 1   
   113  110  118 1   
   114  111  112 2   
   115  111  123 1   
   116  113  114 1   
   117  113  119 1   
   118  113  120 1   
   119  114  115 1   
   120  114  116 2   
   121  115  121 1   
   122  115  122 1   
   123  123  124 1   
   124  123  135 1   
   125  124  125 1   
   126  124  127 1   
   127  124  136 1   
   128  125  126 2   
   129  125  144 1   
   130  127  128 1   
   131  127  137 1   
   132  127  138 1   
   133  128  129 ar  
   134  128  130 ar  
   135  129  131 ar  
   136  129  139 1   
   137  130  132 ar  
   138  130  140 1   
   139  131  133 ar  
   140  131  141 1   
   141  132  133 ar  
   142  132  142 1   
   143  133  134 1   
   144  134  143 1   
   145  144  145 1   
   146  144  153 1   
   147  145  146 1   
   148  145  148 1   
   149  145  154 1   
   150  146  147 2   
   151  146  159 1   
   152  148  149 1   
   153  148  155 1   
   154  148  156 1   
   155  149  150 1   
   156  149  157 1   
   157  149  158 1   
   158  150  151 1   
   159  150  152 1   
   160  159  160 1   
   161  159  168 1   
   162  160  161 1   
   163  160  163 1   
   164  160  169 1   
   165  161  162 2   
   166  161  174 1   
   167  163  164 1   
   168  163  170 1   
   169  163  171 1   
   170  164  165 1   
   171  164  172 1   
   172  164  173 1   
   173  165  166 1   
   174  165  167 1   
   175  174  175 1   
   176  174  179 1   
   177  175  176 1   
   178  175  177 1   
   179  175  178 1   
   180  181  182 1   
   181  181  183 1   
   182  184  185 1   
   183  184  186 1   
   184  187  188 1   
   185  187  189 1   
@<TRIPOS>SUBSTRUCTURE
     1 MOL         1 TEMP              0 ****  ****    0 ROOT
