@<TRIPOS>MOLECULE
MOL
  175   173     1     0     0
SMALL
resp


@<TRIPOS>ATOM
      1 C1          0.7350    4.0180    5.4000 c3        1 MOL     -0.369936
      2 C2          0.0020    3.9010    4.0600 c         1 MOL      0.695251
      3 O1          0.6540    3.8980    2.9970 o         1 MOL     -0.564915
      4 H1          1.8040    4.1300    5.2200 hc        1 MOL      0.095368
      5 H2          0.3640    4.8880    5.9420 hc        1 MOL      0.095368
      6 H3          0.5600    3.1190    5.9900 hc        1 MOL      0.095368
      7 N1         -1.3400    3.8730    3.9700 n         1 MOL     -0.671950
      8 C3         -2.1290    3.4800    2.7900 c3        1 MOL      0.308741
      9 C4         -2.3530    4.5870    1.8490 c         1 MOL      0.505635
     10 O2         -3.1290    5.5070    2.0800 o         1 MOL     -0.595745
     11 C5         -3.4360    2.8700    3.2030 c3        1 MOL     -0.456111
     12 C6         -4.1850    2.1030    2.1480 c         1 MOL      0.897904
     13 O3         -5.2170    1.4480    2.4530 o         1 MOL     -0.717344
     14 O4         -3.6710    1.9300    1.0530 o         1 MOL     -0.717344
     15 H4         -1.8970    4.2480    4.7300 hn        1 MOL      0.326435
     16 H5         -1.5520    2.7040    2.2900 h1        1 MOL      0.063231
     17 H6         -4.1840    3.6130    3.4800 hc        1 MOL      0.083832
     18 H7         -3.3020    2.1410    4.0090 hc        1 MOL      0.083832
     19 N2         -1.7160    4.5220    0.6910 n         1 MOL     -0.302612
     20 C7         -1.7170    5.5170   -0.2860 c3        1 MOL      0.081390
     21 C8         -2.7860    5.2130   -1.3440 c         1 MOL      0.573932
     22 O5         -3.0320    6.1380   -2.1280 o         1 MOL     -0.584240
     23 C9         -0.2940    5.6860   -0.8470 c3        1 MOL     -0.169218
     24 H8         -1.0490    3.7640    0.6410 hn        1 MOL      0.248379
     25 H9         -1.9200    6.4930    0.1480 h1        1 MOL      0.049683
     26 H10         0.4640    5.8850   -0.0960 hc        1 MOL      0.047212
     27 H11         0.0060    4.7310   -1.2620 hc        1 MOL      0.047212
     28 H12        -0.2980    6.4220   -1.6460 hc        1 MOL      0.047212
     29 N3         -3.5020    4.0250   -1.4250 n         1 MOL     -0.523610
     30 C10        -4.5560    3.8300   -2.4490 c3        1 MOL      0.186884
     31 C11        -5.7080    3.0300   -1.9900 c         1 MOL      0.266576
     32 O6         -6.7000    2.9970   -2.7310 o         1 MOL     -0.521575
     33 C12        -3.9170    2.9620   -3.6450 c3        1 MOL     -0.389975
     34 C13        -3.0040    1.8270   -3.1570 c         1 MOL      0.810193
     35 O7         -3.3320    1.0940   -2.2020 o         1 MOL     -0.704584
     36 O8         -1.9080    1.7050   -3.8230 o         1 MOL     -0.704584
     37 H13        -3.0860    3.2840   -0.8820 hn        1 MOL      0.325531
     38 H14        -4.8140    4.8090   -2.8410 h1        1 MOL      0.098917
     39 H15        -3.2990    3.6680   -4.1950 hc        1 MOL      0.094389
     40 H16        -4.6660    2.4300   -4.2440 hc        1 MOL      0.094389
     41 N4         -5.7010    2.3760   -0.7570 n         1 MOL     -0.020700
     42 C14        -6.8100    1.5560   -0.3440 c3        1 MOL     -0.408319
     43 C15        -7.0410    0.1940   -1.0520 c         1 MOL      0.549242
     44 O9         -8.0980   -0.4250   -0.9650 o         1 MOL     -0.577528
     45 H17        -4.8520    2.4570   -0.2290 hn        1 MOL      0.048405
     46 H18        -7.6960    2.1430   -0.5690 h1        1 MOL      0.158758
     47 H19        -6.8140    1.2670    0.7070 h1        1 MOL      0.158758
     48 N5         -6.0440   -0.3310   -1.8720 n         1 MOL     -0.265078
     49 C16        -6.1940   -1.6120   -2.5380 c3        1 MOL     -0.061179
     50 C17        -6.5180   -2.8500   -1.5440 c         1 MOL      0.531185
     51 O10        -7.1820   -3.8010   -1.9290 o         1 MOL     -0.580416
     52 C18        -5.1020   -1.9400   -3.5330 c3        1 MOL     -0.144156
     53 C19        -3.7890   -2.2060   -2.9310 c         1 MOL      0.530578
     54 N6         -3.0090   -2.8900   -3.7050 n         1 MOL     -0.582939
     55 O11        -3.4210   -1.8660   -1.7600 o         1 MOL     -0.600346
     56 H20        -5.1640    0.1720   -1.8400 hn        1 MOL      0.285680
     57 H21        -7.0550   -1.4060   -3.1730 h1        1 MOL      0.084209
     58 H22        -4.9020   -1.0650   -4.1660 hc        1 MOL      0.065053
     59 H23        -5.4290   -2.7480   -4.1990 hc        1 MOL      0.065053
     60 H24        -3.2870   -3.2400   -4.6070 hn        1 MOL      0.321727
     61 H25        -2.1200   -3.1000   -3.2830 hn        1 MOL      0.321727
     62 N7         -5.9870   -2.8120   -0.3030 n         1 MOL     -0.203200
     63 C20        -6.3310   -3.7890    0.7430 c3        1 MOL      0.004861
     64 C21        -5.1130   -4.3810    1.5220 c         1 MOL      0.326456
     65 O12        -5.3440   -5.2700    2.3310 o         1 MOL     -0.543304
     66 H26        -5.5320   -1.9700    0.0100 hn        1 MOL      0.156290
     67 H27        -6.9720   -4.6210    0.4410 h1        1 MOL      0.071137
     68 H28        -7.0280   -3.3200    1.4410 h1        1 MOL      0.071137
     69 N8         -3.8800   -3.9260    1.2770 n         1 MOL      0.018215
     70 C22        -2.5620   -4.4760    1.5980 c3        1 MOL     -0.193498
     71 C23        -1.5860   -3.3620    1.7220 c         1 MOL      0.513893
     72 O13        -1.6860   -2.4090    0.9130 o         1 MOL     -0.613687
     73 C24        -2.1160   -5.4280    0.5300 c3        1 MOL      0.531912
     74 C25        -2.9320   -6.7340    0.5640 c3        1 MOL     -0.538759
     75 O14        -2.1000   -4.8620   -0.7710 oh        1 MOL     -0.608706
     76 H29        -3.8320   -3.2220    0.5560 hn        1 MOL      0.007620
     77 H30        -2.5450   -4.9530    2.5810 h1        1 MOL      0.086223
     78 H31        -1.0870   -5.7180    0.7380 h1        1 MOL     -0.040859
     79 H32        -1.6250   -4.0240   -0.7420 ho        1 MOL      0.406421
     80 H33        -2.5260   -7.4200   -0.1660 hc        1 MOL      0.140781
     81 H34        -2.9230   -7.0620    1.6120 hc        1 MOL      0.140781
     82 H35        -3.9850   -6.6020    0.3110 hc        1 MOL      0.140781
     83 N9         -0.5040   -3.4980    2.5230 n         1 MOL     -0.513106
     84 C26         0.7930   -2.8350    2.3080 c3        1 MOL      0.025678
     85 C27         1.3560   -3.0800    0.8560 c         1 MOL      0.452229
     86 O15         1.4330   -4.2240    0.4170 o         1 MOL     -0.551128
     87 C28         1.7560   -3.1300    3.4410 c3        1 MOL      0.065887
     88 C29         1.2490   -2.3710    4.7420 c3        1 MOL      0.097922
     89 C30         3.1280   -2.6290    3.1400 c3        1 MOL     -0.126454
     90 C31         1.8690   -2.8690    6.1020 c3        1 MOL     -0.176428
     91 H36        -0.4800   -4.3950    2.9930 hn        1 MOL      0.317581
     92 H37         0.5990   -1.7650    2.3340 h1        1 MOL      0.044338
     93 H38         1.6500   -4.1900    3.6650 hc        1 MOL     -0.003727
     94 H39         0.1870   -2.5760    4.8510 hc        1 MOL     -0.005262
     95 H40         1.4390   -1.3030    4.6590 hc        1 MOL     -0.005262
     96 H41         3.5100   -3.1680    2.2680 hc        1 MOL      0.029812
     97 H42         3.1180   -1.5760    2.8690 hc        1 MOL      0.029812
     98 H43         3.7990   -2.8650    3.9640 hc        1 MOL      0.029812
     99 H44         1.3560   -2.3170    6.8920 hc        1 MOL      0.033708
    100 H45         1.5980   -3.8960    6.3590 hc        1 MOL      0.033708
    101 H46         2.9540   -2.7550    6.0830 hc        1 MOL      0.033708
    102 N10         1.4590   -2.0510    0.0110 n         1 MOL     -0.103728
    103 C32         2.3400   -2.0370   -1.1680 c3        1 MOL      0.015361
    104 C33         3.8800   -1.6910   -0.8600 c         1 MOL      0.543421
    105 O16         4.1420   -1.2950    0.2450 o         1 MOL     -0.360236
    106 C34         1.7520   -1.1850   -2.3070 c3        1 MOL     -0.133106
    107 C35         0.3440   -1.5010   -2.5330 c         1 MOL      0.742523
    108 O17        -0.5200   -0.6960   -1.9660 o         1 MOL     -0.675682
    109 O18        -0.0130   -2.4140   -3.2530 o         1 MOL     -0.675682
    110 H47         1.0960   -1.1630    0.3450 hn        1 MOL      0.033016
    111 H48         2.2760   -3.0010   -1.6690 h1        1 MOL      0.049549
    112 H49         2.3290   -1.4020   -3.2020 hc        1 MOL      0.024334
    113 H50         1.8620   -0.1340   -2.0370 hc        1 MOL      0.024334
    114 N11         4.7700   -1.8540   -1.8430 n         1 MOL     -0.831338
    115 C36         6.1930   -1.5880   -1.5680 c3        1 MOL      0.747530
    116 C37         6.5430   -0.1530   -1.2220 c         1 MOL      0.313384
    117 O19         7.1570    0.0320   -0.1540 o         1 MOL     -0.475756
    118 C38         7.1960   -2.1660   -2.5720 c3        1 MOL     -0.233929
    119 C39         8.6260   -1.9210   -2.3320 ca        1 MOL      0.160939
    120 C40         9.1400   -2.0330   -0.9920 ca        1 MOL     -0.242749
    121 C41         9.4770   -1.2720   -3.2890 ca        1 MOL     -0.242749
    122 C42        10.4260   -1.5000   -0.5990 ca        1 MOL     -0.104533
    123 C43        10.7720   -0.8280   -2.8920 ca        1 MOL     -0.104533
    124 C44        11.2540   -0.8870   -1.5780 ca        1 MOL     -0.100962
    125 H51         4.4670   -2.1400   -2.7530 hn        1 MOL      0.348707
    126 H52         6.3030   -2.2230   -0.6870 h1        1 MOL     -0.036469
    127 H53         7.0360   -1.7790   -3.5810 hc        1 MOL      0.041125
    128 H54         7.1210   -3.2530   -2.5550 hc        1 MOL      0.041125
    129 H55         8.6070   -2.6110   -0.2480 ha        1 MOL      0.137954
    130 H56         9.0920   -1.1270   -4.2860 ha        1 MOL      0.137954
    131 H57        10.8210   -1.6100    0.3940 ha        1 MOL      0.111762
    132 H58        11.3450   -0.1990   -3.5550 ha        1 MOL      0.111762
    133 H59        12.2320   -0.5010   -1.3420 ha        1 MOL      0.102865
    134 N12         6.1550    0.8820   -1.9870 n         1 MOL     -0.160894
    135 C45         6.2100    2.3870   -1.6140 c3        1 MOL     -0.023641
    136 C46         5.5860    2.7280   -0.2050 c         1 MOL      0.253936
    137 O20         5.7610    3.7820    0.4160 o         1 MOL     -0.488248
    138 C47         5.3730    3.1760   -2.7340 c3        1 MOL     -0.056580
    139 C48         5.5460    2.2090   -3.8720 c3        1 MOL      0.109920
    140 C49         5.4570    0.7650   -3.2400 c3        1 MOL     -0.158500
    141 H60         7.2020    2.8240   -1.7020 h1        1 MOL      0.106067
    142 H61         4.3210    3.1930   -2.4340 hc        1 MOL      0.061600
    143 H62         5.8050    4.1700   -2.8170 hc        1 MOL      0.061600
    144 H63         4.9610    2.4460   -4.7570 hc        1 MOL     -0.008261
    145 H64         6.5980    2.2290   -4.1790 hc        1 MOL     -0.008261
    146 H65         4.4050    0.5870   -3.0450 h1        1 MOL      0.072570
    147 H66         5.8940   -0.0790   -3.7880 h1        1 MOL      0.072570
    148 N13         4.8110    1.8130    0.4030 n         1 MOL      0.029427
    149 C50         4.1090    1.8850    1.6590 c3        1 MOL     -0.051983
    150 C51         4.9640    1.3920    2.7480 c         1 MOL      0.430308
    151 O21         5.0510    2.0790    3.7790 o         1 MOL     -0.560933
    152 C52         2.7060    1.2620    1.6440 c3        1 MOL     -0.112156
    153 C53         1.8080    1.8670    0.5400 c3        1 MOL     -0.321159
    154 C54         0.3910    1.3270    0.6250 c         1 MOL      0.876998
    155 O22         0.1400    0.2680    1.1500 o         1 MOL     -0.792721
    156 O23        -0.5270    1.8970   -0.0590 o         1 MOL     -0.792721
    157 H67         4.8320    0.8890   -0.0020 hn        1 MOL      0.070833
    158 H68         3.9230    2.9280    1.9330 h1        1 MOL      0.105518
    159 H69         2.2380    1.4360    2.6050 hc        1 MOL      0.096086
    160 H70         2.8220    0.2120    1.3820 hc        1 MOL      0.096086
    161 H71         2.2120    1.5020   -0.3990 hc        1 MOL      0.110292
    162 H72         1.7520    2.9590    0.5610 hc        1 MOL      0.110292
    163 N14         5.5920    0.2560    2.5410 n         1 MOL     -0.018915
    164 C55         6.5420   -0.4450    3.4230 c3        1 MOL     -0.255895
    165 H73         7.4850    0.1000    3.4480 h1        1 MOL      0.099114
    166 H74         6.1290   -0.5030    4.4290 h1        1 MOL      0.099114
    167 H75         6.7160   -1.4520    3.0430 h1        1 MOL      0.099114
    168 H76         5.3680   -0.1730    1.6500 hn        1 MOL     -0.020059
    169 Ca1        -2.1470   -0.0780   -0.1800 Ca        1 MOL      1.646586
    170 O24        -4.4360   -0.8350    1.0420 oh        1 MOL     -0.646741
    171 H77        -4.3320   -1.2840    1.8830 ho        1 MOL      0.338507
    172 H78        -4.5870    0.0870    1.2830 ho        1 MOL      0.338507
    173 O25        -1.7750   -0.2250    2.8960 oh        1 MOL     -0.646741
    174 H79        -0.9120    0.0050    2.5620 ho        1 MOL      0.338507
    175 H80        -1.7230   -0.0390    3.8330 ho        1 MOL      0.338507
@<TRIPOS>BOND
     1    1    2 1   
     2    1    4 1   
     3    1    5 1   
     4    1    6 1   
     5    2    3 2   
     6    2    7 1   
     7    7    8 1   
     8    7   15 1   
     9    8    9 1   
    10    8   11 1   
    11    8   16 1   
    12    9   10 2   
    13    9   19 1   
    14   11   12 1   
    15   11   17 1   
    16   11   18 1   
    17   12   13 1   
    18   12   14 1   
    19   19   20 1   
    20   19   24 1   
    21   20   21 1   
    22   20   23 1   
    23   20   25 1   
    24   21   22 2   
    25   21   29 1   
    26   23   26 1   
    27   23   27 1   
    28   23   28 1   
    29   29   30 1   
    30   29   37 1   
    31   30   31 1   
    32   30   33 1   
    33   30   38 1   
    34   31   32 2   
    35   31   41 1   
    36   33   34 1   
    37   33   39 1   
    38   33   40 1   
    39   34   35 1   
    40   34   36 1   
    41   41   42 1   
    42   41   45 1   
    43   42   43 1   
    44   42   46 1   
    45   42   47 1   
    46   43   44 2   
    47   43   48 1   
    48   48   49 1   
    49   48   56 1   
    50   49   50 1   
    51   49   52 1   
    52   49   57 1   
    53   50   51 2   
    54   50   62 1   
    55   52   53 1   
    56   52   58 1   
    57   52   59 1   
    58   53   54 1   
    59   53   55 2   
    60   54   60 1   
    61   54   61 1   
    62   62   63 1   
    63   62   66 1   
    64   63   64 1   
    65   63   67 1   
    66   63   68 1   
    67   64   65 2   
    68   64   69 1   
    69   69   70 1   
    70   69   76 1   
    71   70   71 1   
    72   70   73 1   
    73   70   77 1   
    74   71   72 2   
    75   71   83 1   
    76   73   74 1   
    77   73   75 1   
    78   73   78 1   
    79   74   80 1   
    80   74   81 1   
    81   74   82 1   
    82   75   79 1   
    83   83   84 1   
    84   83   91 1   
    85   84   85 1   
    86   84   87 1   
    87   84   92 1   
    88   85   86 2   
    89   85  102 1   
    90   87   88 1   
    91   87   89 1   
    92   87   93 1   
    93   88   90 1   
    94   88   94 1   
    95   88   95 1   
    96   89   96 1   
    97   89   97 1   
    98   89   98 1   
    99   90   99 1   
   100   90  100 1   
   101   90  101 1   
   102  102  103 1   
   103  102  110 1   
   104  103  104 1   
   105  103  106 1   
   106  103  111 1   
   107  104  105 2   
   108  104  114 1   
   109  106  107 1   
   110  106  112 1   
   111  106  113 1   
   112  107  108 1   
   113  107  109 1   
   114  114  115 1   
   115  114  125 1   
   116  115  116 1   
   117  115  118 1   
   118  115  126 1   
   119  116  117 2   
   120  116  134 1   
   121  118  119 1   
   122  118  127 1   
   123  118  128 1   
   124  119  120 ar  
   125  119  121 ar  
   126  120  122 ar  
   127  120  129 1   
   128  121  123 ar  
   129  121  130 1   
   130  122  124 ar  
   131  122  131 1   
   132  123  124 ar  
   133  123  132 1   
   134  124  133 1   
   135  134  135 1   
   136  134  140 1   
   137  135  136 1   
   138  135  138 1   
   139  135  141 1   
   140  136  137 2   
   141  136  148 1   
   142  138  139 1   
   143  138  142 1   
   144  138  143 1   
   145  139  140 1   
   146  139  144 1   
   147  139  145 1   
   148  140  146 1   
   149  140  147 1   
   150  148  149 1   
   151  148  157 1   
   152  149  150 1   
   153  149  152 1   
   154  149  158 1   
   155  150  151 2   
   156  150  163 1   
   157  152  153 1   
   158  152  159 1   
   159  152  160 1   
   160  153  154 1   
   161  153  161 1   
   162  153  162 1   
   163  154  155 1   
   164  154  156 1   
   165  163  164 1   
   166  163  168 1   
   167  164  165 1   
   168  164  166 1   
   169  164  167 1   
   170  170  171 1   
   171  170  172 1   
   172  173  174 1   
   173  173  175 1   
@<TRIPOS>SUBSTRUCTURE
     1 MOL         1 TEMP              0 ****  ****    0 ROOT
