@<TRIPOS>MOLECULE
MOL
  176   174     1     0     0
SMALL
resp


@<TRIPOS>ATOM
      1 C1         -0.2950    4.8860   -4.6820 c3        1 MOL     -0.227376
      2 C2          0.1620    4.1630   -3.3800 c         1 MOL      0.583005
      3 O1         -0.4860    4.1160   -2.3140 o         1 MOL     -0.557587
      4 H1         -0.8780    4.1970   -5.2940 hc        1 MOL      0.067718
      5 H2         -0.9080    5.7490   -4.4220 hc        1 MOL      0.067718
      6 H3          0.5810    5.2160   -5.2410 hc        1 MOL      0.067718
      7 N1          1.2620    3.3650   -3.3270 n         1 MOL     -0.576504
      8 C3          1.7610    2.5630   -2.1320 c3        1 MOL      0.224676
      9 C4          2.7110    3.5020   -1.2750 c         1 MOL      0.284027
     10 O2          3.9390    3.6040   -1.4270 o         1 MOL     -0.446453
     11 C5          2.5680    1.2980   -2.6120 c3        1 MOL     -0.061717
     12 C6          3.2230    0.5090   -1.3990 c         1 MOL      0.513887
     13 O3          2.6390    0.5750   -0.2750 o         1 MOL     -0.569550
     14 O4          4.3320    0.0340   -1.5850 o         1 MOL     -0.569550
     15 H4          1.6090    3.0930   -4.2320 hn        1 MOL      0.300175
     16 H5          0.9200    2.2370   -1.5190 h1        1 MOL      0.087580
     17 H6          3.3440    1.7480   -3.2140 hc        1 MOL      0.016189
     18 H7          2.0390    0.6270   -3.2790 hc        1 MOL      0.016189
     19 N2          2.0280    4.4630   -0.5970 n         1 MOL     -0.079507
     20 C7          2.7280    5.6540   -0.0640 c3        1 MOL     -0.190037
     21 C8          3.4660    5.4130    1.2740 c         1 MOL      0.490194
     22 O5          3.9270    6.3750    1.8880 o         1 MOL     -0.574716
     23 C9          1.6720    6.7400    0.0590 c3        1 MOL     -0.077121
     24 C10         1.1770    7.3540   -1.2220 c3        1 MOL      0.142793
     25 C11         0.1990    8.5130   -0.9610 c3        1 MOL     -0.049059
     26 C12        -0.0370    9.3440   -2.2340 c3        1 MOL     -0.007733
     27 N3          1.1830   10.0430   -2.8220 n4        1 MOL     -0.385463
     28 H8          1.0220    4.4190   -0.5740 hn        1 MOL      0.245477
     29 H9          3.3870    6.0670   -0.8230 h1        1 MOL      0.118208
     30 H10         1.9200    7.5400    0.7580 hc        1 MOL      0.056368
     31 H11         0.8070    6.3750    0.6160 hc        1 MOL      0.056368
     32 H12         0.7780    6.6460   -1.9440 hc        1 MOL     -0.054759
     33 H13         2.0830    7.7000   -1.7110 hc        1 MOL     -0.054759
     34 H14         0.5540    9.1940   -0.1860 hc        1 MOL      0.058729
     35 H15        -0.7290    8.0870   -0.5740 hc        1 MOL      0.058729
     36 H16        -0.8820   10.0300   -2.1060 hx        1 MOL      0.103232
     37 H17        -0.4240    8.6370   -2.9690 hx        1 MOL      0.103232
     38 H18         1.8270    9.3970   -3.2420 hn        1 MOL      0.332135
     39 H19         0.9890   10.6960   -3.5730 hn        1 MOL      0.332135
     40 H20         1.7600   10.5360   -2.1450 hn        1 MOL      0.332135
     41 N4          3.3910    4.2320    1.8410 n         1 MOL     -0.109015
     42 C13         4.2220    3.8270    2.9560 c3        1 MOL      0.076141
     43 C14         5.4560    2.8340    2.5000 c         1 MOL      0.277214
     44 O6          6.5150    2.7300    3.0740 o         1 MOL     -0.513971
     45 C15         3.2660    3.1470    3.9840 c3        1 MOL     -0.238290
     46 C16         2.6080    1.9080    3.3140 c         1 MOL      0.738180
     47 O7          3.0740    0.7750    3.2970 o         1 MOL     -0.702545
     48 O8          1.5160    2.0780    2.7130 o         1 MOL     -0.702545
     49 H21         2.7660    3.5810    1.3770 hn        1 MOL      0.033467
     50 H22         4.6400    4.6740    3.5010 h1        1 MOL      0.102059
     51 H23         2.5170    3.8480    4.3430 hc        1 MOL      0.063340
     52 H24         3.8220    2.8840    4.8790 hc        1 MOL      0.063340
     53 N5          5.4040    2.3410    1.2930 n         1 MOL      0.143619
     54 C17         6.4770    1.7700    0.4560 c3        1 MOL     -0.221961
     55 C18         6.8520    0.2790    0.7980 c         1 MOL      0.578628
     56 O9          7.9820   -0.0870    0.4640 o         1 MOL     -0.554412
     57 H25         4.5640    2.5550    0.7700 hn        1 MOL     -0.063445
     58 H26         7.3440    2.4340    0.4670 h1        1 MOL      0.113137
     59 H27         6.0990    1.7430   -0.5670 h1        1 MOL      0.113137
     60 N6          5.8840   -0.3990    1.4060 n         1 MOL     -0.359519
     61 C19         5.9990   -1.8640    1.8410 c3        1 MOL      0.100713
     62 C20         5.9150   -2.8320    0.5920 c         1 MOL      0.329962
     63 O10         6.6360   -3.8000    0.6160 o         1 MOL     -0.535902
     64 C21         4.9860   -2.2410    2.9590 c3        1 MOL     -0.235622
     65 C22         3.7290   -2.7970    2.4160 c         1 MOL      0.730743
     66 N7          3.3550   -3.9630    2.8970 n         1 MOL     -0.787312
     67 O11         3.1260   -2.2670    1.5170 o         1 MOL     -0.803117
     68 H28         4.9770    0.0470    1.4480 hn        1 MOL      0.148038
     69 H29         6.9570   -2.0370    2.3100 h1        1 MOL      0.093671
     70 H30         4.7300   -1.4600    3.6740 hc        1 MOL      0.095005
     71 H31         5.4890   -3.0740    3.4500 hc        1 MOL      0.095005
     72 H32         3.8580   -4.4610    3.6200 hn        1 MOL      0.373525
     73 H33         2.4470   -4.2820    2.5780 hn        1 MOL      0.373525
     74 N8          5.2460   -2.4710   -0.4950 n         1 MOL      0.270929
     75 C23         5.1650   -3.2000   -1.6870 c3        1 MOL     -0.682137
     76 C24         3.7820   -3.7910   -2.0740 c         1 MOL      0.826430
     77 O12         3.6460   -4.2620   -3.2080 o         1 MOL     -0.601578
     78 H34         4.8780   -1.5300   -0.4860 hn        1 MOL      0.028503
     79 H35         5.7520   -4.0920   -1.4690 h1        1 MOL      0.205160
     80 H36         5.5690   -2.5720   -2.4790 h1        1 MOL      0.205160
     81 N9          2.7740   -3.5110   -1.2650 n         1 MOL     -0.518340
     82 C25         1.3630   -3.9200   -1.5260 c3        1 MOL      0.223250
     83 C26         0.3270   -2.7940   -1.2890 c         1 MOL      0.538692
     84 O13         0.6920   -1.8890   -0.5780 o         1 MOL     -0.681604
     85 C27         1.0630   -5.2660   -0.7670 c3        1 MOL     -0.011993
     86 C28         2.1130   -6.3180   -0.9560 ca        1 MOL      0.010468
     87 C29         3.2580   -6.2570   -0.0890 ca        1 MOL     -0.172144
     88 C30         1.9860   -7.3460   -1.8870 ca        1 MOL     -0.172144
     89 C31         4.2470   -7.2560   -0.1430 ca        1 MOL     -0.222786
     90 C32         3.0220   -8.2710   -2.0350 ca        1 MOL     -0.222786
     91 C33         4.1440   -8.2590   -1.1610 ca        1 MOL      0.263674
     92 O14         5.2430   -9.1040   -1.3240 oh        1 MOL     -0.449096
     93 H37         3.0100   -2.9990   -0.4300 hn        1 MOL      0.390253
     94 H38         1.4190   -4.1300   -2.5930 h1        1 MOL      0.002862
     95 H39         0.0640   -5.6050   -1.0460 hc        1 MOL      0.000347
     96 H40         1.0520   -5.0820    0.3000 hc        1 MOL      0.000347
     97 H41         3.3870   -5.4060    0.5740 ha        1 MOL      0.131703
     98 H42         1.1050   -7.4920   -2.4850 ha        1 MOL      0.131703
     99 H43         5.0840   -7.2180    0.5330 ha        1 MOL      0.148346
    100 H44         2.8850   -8.9950   -2.8310 ha        1 MOL      0.148346
    101 H45         4.9280   -9.9040   -1.7390 ho        1 MOL      0.339367
    102 N10        -0.8860   -2.8980   -1.8820 n         1 MOL     -0.576932
    103 C34        -1.9320   -1.9540   -1.5710 c3        1 MOL      0.027589
    104 C35        -3.2180   -2.8040   -1.3430 c         1 MOL      0.576659
    105 O15        -3.5310   -3.5700   -2.2560 o         1 MOL     -0.535937
    106 C36        -2.0680   -0.9800   -2.7590 c3        1 MOL     -0.025052
    107 C37        -0.6430   -0.4680   -3.1550 c3        1 MOL      0.355482
    108 C38        -2.9950    0.2020   -2.3170 c3        1 MOL     -0.262825
    109 C39        -0.5790    0.6120   -4.2080 c3        1 MOL     -0.258958
    110 H46        -0.9610   -3.5950   -2.6040 hn        1 MOL      0.329743
    111 H47        -1.7230   -1.3260   -0.6980 h1        1 MOL      0.083580
    112 H48        -2.4630   -1.4830   -3.6390 hc        1 MOL      0.032788
    113 H49        -0.0770   -1.2790   -3.6240 hc        1 MOL     -0.050825
    114 H50        -0.0240   -0.1230   -2.3220 hc        1 MOL     -0.050825
    115 H51        -4.0170   -0.1760   -2.2340 hc        1 MOL      0.070330
    116 H52        -2.6810    0.5840   -1.3380 hc        1 MOL      0.070330
    117 H53        -2.9440    0.9520   -3.1040 hc        1 MOL      0.070330
    118 H54        -0.8820    1.5570   -3.7640 hc        1 MOL      0.044099
    119 H55         0.4370    0.7930   -4.5350 hc        1 MOL      0.044099
    120 H56        -1.1910    0.2910   -5.0550 hc        1 MOL      0.044099
    121 N11        -3.8640   -2.5700   -0.2120 n         1 MOL     -0.470470
    122 C40        -5.1210   -3.2170    0.1260 c3        1 MOL      0.158334
    123 C41        -6.3530   -2.4720   -0.4360 c         1 MOL      0.364602
    124 O16        -6.1850   -1.2940   -0.9010 o         1 MOL     -0.330152
    125 C42        -5.1040   -3.3670    1.6700 c3        1 MOL     -0.180085
    126 O17        -5.4540   -2.1290    2.2930 oh        1 MOL     -0.346099
    127 H57        -3.5970   -1.8090    0.3920 hn        1 MOL      0.356646
    128 H58        -5.1100   -4.2120   -0.3080 h1        1 MOL      0.054720
    129 H59        -4.1260   -3.7210    2.0130 h1        1 MOL      0.091875
    130 H60        -5.9410   -4.0200    1.9300 h1        1 MOL      0.091875
    131 H61        -5.5760   -2.4090    3.2000 ho        1 MOL      0.346994
    132 N12        -7.5570   -3.1100   -0.3160 n         1 MOL     -0.477640
    133 C43        -8.7960   -2.4140   -0.6030 c3        1 MOL      0.270572
    134 C44        -8.8550   -1.1410    0.3200 c         1 MOL      0.349100
    135 O18        -9.1500   -0.0620   -0.2010 o         1 MOL     -0.488991
    136 C45        -9.9850   -3.3700   -0.4810 c3        1 MOL     -0.408627
    137 H62        -7.5630   -4.0620    0.0060 hn        1 MOL      0.307819
    138 H63        -8.8190   -2.0490   -1.6230 h1        1 MOL      0.067086
    139 H64       -10.9670   -2.9060   -0.5860 hc        1 MOL      0.117406
    140 H65        -9.9470   -4.0060   -1.3630 hc        1 MOL      0.117406
    141 H66        -9.8700   -3.8930    0.4640 hc        1 MOL      0.117406
    142 N13        -8.6020   -1.2200    1.6230 n         1 MOL     -0.355416
    143 C46        -8.8000    0.0290    2.4170 c3        1 MOL      0.149032
    144 C47        -7.7770    1.1320    2.1350 c         1 MOL      0.295008
    145 O19        -8.1430    2.3380    2.0440 o         1 MOL     -0.490885
    146 C48        -9.0060   -0.2380    3.9380 c3        1 MOL     -0.398982
    147 H67        -8.2160   -2.0620    2.0210 hn        1 MOL      0.255245
    148 H68        -9.6920    0.5590    2.0690 h1        1 MOL      0.112928
    149 H69       -10.0000   -0.6340    4.1240 hc        1 MOL      0.111380
    150 H70        -8.2490   -0.8330    4.4490 hc        1 MOL      0.111380
    151 H71        -8.8700    0.7120    4.4490 hc        1 MOL      0.111380
    152 N14        -6.5220    0.7470    1.8520 n         1 MOL     -0.028851
    153 C49        -5.3560    1.6120    1.3900 c3        1 MOL     -0.293053
    154 C50        -5.6180    2.3100    0.0450 c         1 MOL      0.538956
    155 O20        -5.4790    3.5020   -0.0540 o         1 MOL     -0.543989
    156 C51        -4.1070    0.7260    1.3940 c3        1 MOL      0.127296
    157 C52        -2.8480    1.5860    1.2670 c3        1 MOL     -0.138006
    158 C53        -1.5240    0.7780    1.3360 c         1 MOL      0.821866
    159 O21        -0.5140    1.2590    0.7620 o         1 MOL     -0.826985
    160 O22        -1.5160   -0.3520    1.9270 o         1 MOL     -0.826985
    161 H72        -6.3320   -0.2300    1.9920 hn        1 MOL      0.052093
    162 H73        -5.2580    2.4360    2.0940 h1        1 MOL      0.133496
    163 H74        -4.1450    0.0470    0.5420 hc        1 MOL     -0.023351
    164 H75        -4.1670    0.1060    2.2900 hc        1 MOL     -0.023351
    165 H76        -2.8220    2.2900    2.0930 hc        1 MOL      0.049228
    166 H77        -2.8560    2.0650    0.2830 hc        1 MOL      0.049228
    167 N15        -6.1110    1.5020   -0.9260 n         1 MOL     -0.017577
    168 C54        -6.3180    1.9890   -2.3110 c3        1 MOL     -0.264126
    169 H78        -6.9120    1.2640   -2.8660 h1        1 MOL      0.095201
    170 H79        -6.8430    2.9450   -2.2870 h1        1 MOL      0.095201
    171 H80        -5.3520    2.1170   -2.8000 h1        1 MOL      0.095201
    172 H81        -6.1960    0.5200   -0.7330 hn        1 MOL      0.045176
    173 Ca1         1.2580   -0.3870    1.5850 Ca        1 MOL      1.794438
    174 O23         0.5040   -0.9330    4.2580 oh        1 MOL     -0.897273
    175 H82        -0.4080   -1.2270    4.2730 ho        1 MOL      0.432547
    176 H83         0.8150   -1.0600    5.1550 ho        1 MOL      0.432547
@<TRIPOS>BOND
     1    1    2 1   
     2    1    4 1   
     3    1    5 1   
     4    1    6 1   
     5    2    3 2   
     6    2    7 1   
     7    7    8 1   
     8    7   15 1   
     9    8    9 1   
    10    8   11 1   
    11    8   16 1   
    12    9   10 2   
    13    9   19 1   
    14   11   12 1   
    15   11   17 1   
    16   11   18 1   
    17   12   13 1   
    18   12   14 1   
    19   19   20 1   
    20   19   28 1   
    21   20   21 1   
    22   20   23 1   
    23   20   29 1   
    24   21   22 2   
    25   21   41 1   
    26   23   24 1   
    27   23   30 1   
    28   23   31 1   
    29   24   25 1   
    30   24   32 1   
    31   24   33 1   
    32   25   26 1   
    33   25   34 1   
    34   25   35 1   
    35   26   27 1   
    36   26   36 1   
    37   26   37 1   
    38   27   38 1   
    39   27   39 1   
    40   27   40 1   
    41   41   42 1   
    42   41   49 1   
    43   42   43 1   
    44   42   45 1   
    45   42   50 1   
    46   43   44 2   
    47   43   53 1   
    48   45   46 1   
    49   45   51 1   
    50   45   52 1   
    51   46   47 1   
    52   46   48 1   
    53   53   54 1   
    54   53   57 1   
    55   54   55 1   
    56   54   58 1   
    57   54   59 1   
    58   55   56 2   
    59   55   60 1   
    60   60   61 1   
    61   60   68 1   
    62   61   62 1   
    63   61   64 1   
    64   61   69 1   
    65   62   63 2   
    66   62   74 1   
    67   64   65 1   
    68   64   70 1   
    69   64   71 1   
    70   65   66 1   
    71   65   67 2   
    72   66   72 1   
    73   66   73 1   
    74   74   75 1   
    75   74   78 1   
    76   75   76 1   
    77   75   79 1   
    78   75   80 1   
    79   76   77 2   
    80   76   81 1   
    81   81   82 1   
    82   81   93 1   
    83   82   83 1   
    84   82   85 1   
    85   82   94 1   
    86   83   84 2   
    87   83  102 1   
    88   85   86 1   
    89   85   95 1   
    90   85   96 1   
    91   86   87 ar  
    92   86   88 ar  
    93   87   89 ar  
    94   87   97 1   
    95   88   90 ar  
    96   88   98 1   
    97   89   91 ar  
    98   89   99 1   
    99   90   91 ar  
   100   90  100 1   
   101   91   92 1   
   102   92  101 1   
   103  102  103 1   
   104  102  110 1   
   105  103  104 1   
   106  103  106 1   
   107  103  111 1   
   108  104  105 2   
   109  104  121 1   
   110  106  107 1   
   111  106  108 1   
   112  106  112 1   
   113  107  109 1   
   114  107  113 1   
   115  107  114 1   
   116  108  115 1   
   117  108  116 1   
   118  108  117 1   
   119  109  118 1   
   120  109  119 1   
   121  109  120 1   
   122  121  122 1   
   123  121  127 1   
   124  122  123 1   
   125  122  125 1   
   126  122  128 1   
   127  123  124 2   
   128  123  132 1   
   129  125  126 1   
   130  125  129 1   
   131  125  130 1   
   132  126  131 1   
   133  132  133 1   
   134  132  137 1   
   135  133  134 1   
   136  133  136 1   
   137  133  138 1   
   138  134  135 2   
   139  134  142 1   
   140  136  139 1   
   141  136  140 1   
   142  136  141 1   
   143  142  143 1   
   144  142  147 1   
   145  143  144 1   
   146  143  146 1   
   147  143  148 1   
   148  144  145 2   
   149  144  152 1   
   150  146  149 1   
   151  146  150 1   
   152  146  151 1   
   153  152  153 1   
   154  152  161 1   
   155  153  154 1   
   156  153  156 1   
   157  153  162 1   
   158  154  155 2   
   159  154  167 1   
   160  156  157 1   
   161  156  163 1   
   162  156  164 1   
   163  157  158 1   
   164  157  165 1   
   165  157  166 1   
   166  158  159 1   
   167  158  160 1   
   168  167  168 1   
   169  167  172 1   
   170  168  169 1   
   171  168  170 1   
   172  168  171 1   
   173  174  175 1   
   174  174  176 1   
@<TRIPOS>SUBSTRUCTURE
     1 MOL         1 TEMP              0 ****  ****    0 ROOT
