@<TRIPOS>MOLECULE
MOL
  172   171     1     0     0
SMALL
resp


@<TRIPOS>ATOM
      1 C1          0.5160    3.5520    5.8220 c3        1 MOL     -0.590694
      2 C2         -0.0340    3.5890    4.3920 c         1 MOL      0.708934
      3 O1          0.7320    3.8800    3.4720 o         1 MOL     -0.544662
      4 H1          1.1460    2.6710    5.9460 hc        1 MOL      0.146012
      5 H2          1.1070    4.4490    6.0090 hc        1 MOL      0.146012
      6 H3         -0.3120    3.5070    6.5290 hc        1 MOL      0.146012
      7 N1         -1.3100    3.3330    4.2390 n         1 MOL     -0.545820
      8 C3         -1.9750    3.2240    2.9000 c3        1 MOL      0.232016
      9 C4         -1.8160    4.4970    1.9410 c         1 MOL      0.424181
     10 O2         -1.6940    5.6380    2.4000 o         1 MOL     -0.566395
     11 C5         -3.4240    2.7450    3.0780 c3        1 MOL     -0.501745
     12 C6         -4.2140    2.4310    1.8560 c         1 MOL      0.740855
     13 O3         -3.7010    1.9110    0.8130 o         1 MOL     -0.666847
     14 O4         -5.4320    2.6610    1.7690 o         1 MOL     -0.666847
     15 H4         -1.9160    3.3820    5.0390 hn        1 MOL      0.308723
     16 H5         -1.4210    2.4270    2.3970 h1        1 MOL     -0.007702
     17 H6         -3.8970    3.6580    3.4610 hc        1 MOL      0.114141
     18 H7         -3.6170    1.9470    3.7980 hc        1 MOL      0.114141
     19 N2         -1.8820    4.3060    0.6440 n         1 MOL     -0.368200
     20 C7         -2.0490    5.4060   -0.3540 c3        1 MOL      0.286805
     21 C8         -3.2050    5.1830   -1.4150 c         1 MOL      0.328245
     22 O5         -3.3650    5.9110   -2.4110 o         1 MOL     -0.525607
     23 C9         -0.7380    5.6500   -1.0310 c3        1 MOL     -0.185889
     24 H8         -1.8200    3.3590    0.2970 hn        1 MOL      0.619074
     25 H9         -2.2670    6.3080    0.2110 h1        1 MOL      0.008552
     26 H10        -0.1100    6.0870   -0.2490 hc        1 MOL      0.038380
     27 H11        -0.3600    4.7090   -1.4310 hc        1 MOL      0.038380
     28 H12        -0.7810    6.4260   -1.7900 hc        1 MOL      0.038380
     29 N3         -3.9250    4.0070   -1.3250 n         1 MOL     -0.272693
     30 C10        -4.7350    3.6010   -2.4900 c3        1 MOL      0.045454
     31 C11        -5.8310    2.5380   -2.2380 c         1 MOL      0.442551
     32 O6         -6.5070    2.1880   -3.1800 o         1 MOL     -0.548149
     33 C12        -3.7520    3.0880   -3.5600 c3        1 MOL     -0.094798
     34 C13        -3.0140    1.8120   -3.2420 c         1 MOL      0.698157
     35 O7         -3.3850    1.0570   -2.2570 o         1 MOL     -0.680672
     36 O8         -2.0150    1.5730   -3.9420 o         1 MOL     -0.680672
     37 H13        -3.6470    3.3300   -0.6310 hn        1 MOL     -0.054629
     38 H14        -5.2710    4.4590   -2.8840 h1        1 MOL      0.072439
     39 H15        -3.0620    3.9160   -3.7070 hc        1 MOL      0.029466
     40 H16        -4.3180    2.9350   -4.4810 hc        1 MOL      0.029466
     41 N4         -6.0100    2.1520   -0.9840 n         1 MOL     -0.230718
     42 C14        -7.0820    1.4200   -0.5910 c3        1 MOL     -0.175313
     43 C15        -7.2070   -0.0650   -0.8750 c         1 MOL      0.486210
     44 O9         -8.2590   -0.6440   -0.6860 o         1 MOL     -0.619871
     45 H17        -5.4530    2.6020   -0.2630 hn        1 MOL      0.251984
     46 H18        -7.9730    1.8790   -1.0300 h1        1 MOL      0.102605
     47 H19        -7.3190    1.4610    0.4740 h1        1 MOL      0.102605
     48 N5         -6.1640   -0.7730   -1.3860 n         1 MOL     -0.122868
     49 C16        -6.2780   -2.0450   -1.9470 c3        1 MOL      0.045056
     50 C17        -6.1990   -3.2950   -1.0200 c         1 MOL      0.309660
     51 O10        -6.0660   -4.4650   -1.4480 o         1 MOL     -0.471901
     52 C18        -5.2030   -2.1300   -3.0700 c3        1 MOL     -0.282832
     53 C19        -3.8340   -2.1820   -2.5530 c         1 MOL      0.597111
     54 N6         -2.8540   -2.3730   -3.3930 n         1 MOL     -0.753142
     55 O11        -3.5290   -2.0200   -1.3820 o         1 MOL     -0.450260
     56 H20        -5.3740   -0.1690   -1.5730 hn        1 MOL      0.107388
     57 H21        -7.2420   -2.1680   -2.4370 h1        1 MOL      0.098093
     58 H22        -5.2520   -1.2890   -3.7700 hc        1 MOL      0.091657
     59 H23        -5.2790   -3.0720   -3.6050 hc        1 MOL      0.091657
     60 H24        -2.9620   -2.0960   -4.3570 hn        1 MOL      0.364471
     61 H25        -1.8830   -2.5170   -3.1270 hn        1 MOL      0.364471
     62 N7         -6.3080   -3.0160    0.2990 n         1 MOL     -0.162351
     63 C20        -6.3370   -4.1060    1.3220 c3        1 MOL     -0.304862
     64 C21        -4.9430   -4.6010    1.7130 c         1 MOL      0.588412
     65 O12        -4.8510   -5.6020    2.4150 o         1 MOL     -0.580694
     66 H26        -6.7050   -2.1520    0.6330 hn        1 MOL      0.264794
     67 H27        -6.8610   -5.0020    1.0090 h1        1 MOL      0.129786
     68 H28        -6.8050   -3.7070    2.2250 h1        1 MOL      0.129786
     69 N8         -3.8200   -3.9890    1.3400 n         1 MOL     -0.387176
     70 C22        -2.4450   -4.5520    1.3690 c3        1 MOL     -0.227694
     71 C23        -1.4680   -3.3380    1.4600 c         1 MOL      0.623252
     72 O13        -1.6450   -2.3590    0.6910 o         1 MOL     -0.492933
     73 C24        -2.1260   -5.4110    0.1720 c3        1 MOL      0.490283
     74 C25        -2.8360   -6.7650    0.1440 c3        1 MOL     -0.400918
     75 O14        -2.2580   -4.7700   -1.0530 oh        1 MOL     -0.538507
     76 H29        -3.9410   -3.1490    0.7980 hn        1 MOL      0.336039
     77 H30        -2.3090   -5.2310    2.2110 h1        1 MOL      0.108968
     78 H31        -1.0730   -5.6880    0.2090 h1        1 MOL     -0.028057
     79 H32        -1.9140   -3.8810   -0.8720 ho        1 MOL      0.333177
     80 H33        -3.9080   -6.5560    0.0900 hc        1 MOL      0.099383
     81 H34        -2.4340   -7.4600   -0.5800 hc        1 MOL      0.099383
     82 H35        -2.7710   -7.1680    1.1620 hc        1 MOL      0.099383
     83 N9         -0.4460   -3.5590    2.2610 n         1 MOL     -0.678208
     84 C26         0.7160   -2.6620    2.2130 c3        1 MOL     -0.015548
     85 C27         1.5670   -2.9870    0.9640 c         1 MOL      0.460885
     86 O15         1.9070   -4.1230    0.6060 o         1 MOL     -0.577046
     87 C28         1.6420   -2.8210    3.4340 c3        1 MOL      0.220960
     88 C29         0.8690   -2.6910    4.7660 c3        1 MOL     -0.022822
     89 C30         2.9220   -1.9400    3.3310 c3        1 MOL     -0.158917
     90 C31         1.7890   -2.6360    5.9920 c3        1 MOL     -0.169970
     91 H36        -0.4280   -4.4610    2.7230 hn        1 MOL      0.363853
     92 H37         0.2990   -1.6700    2.1070 h1        1 MOL      0.128107
     93 H38         1.9770   -3.8510    3.4300 hc        1 MOL     -0.019814
     94 H39         0.2250   -3.5590    4.8700 hc        1 MOL      0.019606
     95 H40         0.3120   -1.7580    4.8150 hc        1 MOL      0.019606
     96 H41         3.5350   -2.0800    2.4510 hc        1 MOL      0.028520
     97 H42         2.7040   -0.8730    3.3740 hc        1 MOL      0.028520
     98 H43         3.6300   -2.2010    4.1170 hc        1 MOL      0.028520
     99 H44         2.4950   -3.4660    5.9560 hc        1 MOL      0.036077
    100 H45         2.4060   -1.7360    5.9980 hc        1 MOL      0.036077
    101 H46         1.1430   -2.6520    6.8780 hc        1 MOL      0.036077
    102 N10         1.7110   -1.9270    0.1740 n         1 MOL      0.047695
    103 C32         2.5480   -1.8970   -1.0440 c3        1 MOL      0.090136
    104 C33         3.9760   -1.4990   -0.6790 c         1 MOL      0.351623
    105 O16         4.2360   -0.9730    0.4050 o         1 MOL     -0.326580
    106 C34         1.8690   -1.0360   -2.0780 c3        1 MOL     -0.154678
    107 C35         0.4070   -1.4460   -2.4460 c         1 MOL      0.652622
    108 O17        -0.5430   -1.0570   -1.7140 o         1 MOL     -0.674091
    109 O18         0.2410   -2.2990   -3.3570 o         1 MOL     -0.674091
    110 H47         1.3880   -1.0550    0.5780 hn        1 MOL     -0.174976
    111 H48         2.4460   -2.8850   -1.4880 h1        1 MOL      0.058751
    112 H49         2.5540   -1.0060   -2.9240 hc        1 MOL      0.069761
    113 H50         1.8030   -0.0050   -1.7170 hc        1 MOL      0.069761
    114 N11         5.0000   -1.6010   -1.5710 n         1 MOL     -0.720388
    115 C36         6.4040   -1.2790   -1.3790 c3        1 MOL      0.625820
    116 C37         6.6380    0.2210   -1.1710 c         1 MOL      0.150245
    117 O19         7.3590    0.6470   -0.2300 o         1 MOL     -0.463168
    118 C38         7.2920   -1.9650   -2.3870 c3        1 MOL     -0.477333
    119 C39         8.8030   -1.9300   -2.0210 ca        1 MOL      0.183349
    120 C40         9.2330   -2.0540   -0.6840 ca        1 MOL     -0.142095
    121 C41         9.7570   -1.9820   -3.0470 ca        1 MOL     -0.142095
    122 C42        10.6370   -1.9560   -0.3620 ca        1 MOL     -0.174105
    123 C43        11.1340   -1.9770   -2.7590 ca        1 MOL     -0.174105
    124 C44        11.5960   -1.9070   -1.4060 ca        1 MOL     -0.073284
    125 H51         4.7270   -1.9990   -2.4650 hn        1 MOL      0.336459
    126 H52         6.6910   -1.6310   -0.3810 h1        1 MOL      0.050486
    127 H53         7.1780   -1.4590   -3.3440 hc        1 MOL      0.125028
    128 H54         6.9830   -3.0020   -2.4350 hc        1 MOL      0.125028
    129 H55         8.5360   -2.1300    0.1370 ha        1 MOL      0.105035
    130 H56         9.4270   -1.8540   -4.0600 ha        1 MOL      0.105035
    131 H57        10.8950   -1.7750    0.6770 ha        1 MOL      0.128978
    132 H58        11.8060   -1.7380   -3.5670 ha        1 MOL      0.128978
    133 H59        12.6520   -1.8410   -1.2000 ha        1 MOL      0.097008
    134 N12         5.9900    1.0640   -2.0110 n         1 MOL      0.002535
    135 C45         5.8130    2.5370   -1.8130 c3        1 MOL     -0.017423
    136 C46         5.1830    2.9420   -0.4150 c         1 MOL      0.205341
    137 O20         5.4580    3.9560    0.1200 o         1 MOL     -0.492931
    138 C47         4.9380    3.0940   -2.9320 c3        1 MOL     -0.110177
    139 C48         5.2760    2.1840   -4.0130 c3        1 MOL     -0.024936
    140 C49         5.3280    0.8060   -3.2420 c3        1 MOL     -0.042853
    141 H60         6.7860    3.0400   -1.8070 h1        1 MOL      0.091386
    142 H61         3.8760    3.0110   -2.7080 hc        1 MOL      0.086387
    143 H62         5.2440    4.0580   -3.3320 hc        1 MOL      0.086387
    144 H63         4.4920    2.1960   -4.7640 hc        1 MOL      0.027526
    145 H64         6.2800    2.3910   -4.3950 hc        1 MOL      0.027526
    146 H65         4.2890    0.5220   -3.0820 h1        1 MOL      0.027037
    147 H66         5.8530    0.0920   -3.8830 h1        1 MOL      0.027037
    148 N13         4.4410    2.0700    0.2320 n         1 MOL      0.195957
    149 C50         3.8590    2.2500    1.5730 c3        1 MOL     -0.165766
    150 C51         4.6030    1.6530    2.7440 c         1 MOL      0.430978
    151 O21         4.6590    2.1840    3.8330 o         1 MOL     -0.548730
    152 C52         2.3830    1.7700    1.5440 c3        1 MOL     -0.047396
    153 C53         1.4620    2.5610    0.5840 c3        1 MOL      0.204329
    154 C54         0.1540    1.8180    0.4470 c         1 MOL      0.644728
    155 O22        -0.6330    2.1840   -0.4440 o         1 MOL     -0.762973
    156 O23        -0.1800    0.7700    1.0810 o         1 MOL     -0.762973
    157 H67         4.3290    1.1860   -0.2390 hn        1 MOL     -0.017943
    158 H68         3.8690    3.3230    1.7820 h1        1 MOL      0.122344
    159 H69         1.8850    1.8410    2.5110 hc        1 MOL      0.073107
    160 H70         2.3450    0.6960    1.4180 hc        1 MOL      0.073107
    161 H71         2.0200    2.6530   -0.3530 hc        1 MOL     -0.063384
    162 H72         1.2950    3.5980    0.8890 hc        1 MOL     -0.063384
    163 N14         5.3440    0.5750    2.4980 n         1 MOL     -0.016977
    164 C55         6.3490    0.0550    3.4160 c3        1 MOL     -0.163314
    165 H73         6.3500   -1.0340    3.3750 h1        1 MOL      0.061767
    166 H74         7.3320    0.4300    3.1310 h1        1 MOL      0.061767
    167 H75         6.1170    0.3790    4.4310 h1        1 MOL      0.061767
    168 H76         5.4010    0.1350    1.5840 hn        1 MOL      0.054004
    169 Ca1        -2.3620   -0.0690   -0.3230 Ca        1 MOL      1.602003
    170 O24        -4.0030   -0.9880    1.5990 oh        1 MOL     -1.016786
    171 H77        -4.7320   -0.5810    2.0640 ho        1 MOL      0.457881
    172 H78        -3.2520   -0.8680    2.1750 ho        1 MOL      0.457881
@<TRIPOS>BOND
     1    1    2 1   
     2    1    4 1   
     3    1    5 1   
     4    1    6 1   
     5    2    3 2   
     6    2    7 1   
     7    7    8 1   
     8    7   15 1   
     9    8    9 1   
    10    8   11 1   
    11    8   16 1   
    12    9   10 2   
    13    9   19 1   
    14   11   12 1   
    15   11   17 1   
    16   11   18 1   
    17   12   13 1   
    18   12   14 1   
    19   19   20 1   
    20   19   24 1   
    21   20   21 1   
    22   20   23 1   
    23   20   25 1   
    24   21   22 2   
    25   21   29 1   
    26   23   26 1   
    27   23   27 1   
    28   23   28 1   
    29   29   30 1   
    30   29   37 1   
    31   30   31 1   
    32   30   33 1   
    33   30   38 1   
    34   31   32 2   
    35   31   41 1   
    36   33   34 1   
    37   33   39 1   
    38   33   40 1   
    39   34   35 1   
    40   34   36 1   
    41   41   42 1   
    42   41   45 1   
    43   42   43 1   
    44   42   46 1   
    45   42   47 1   
    46   43   44 2   
    47   43   48 1   
    48   48   49 1   
    49   48   56 1   
    50   49   50 1   
    51   49   52 1   
    52   49   57 1   
    53   50   51 2   
    54   50   62 1   
    55   52   53 1   
    56   52   58 1   
    57   52   59 1   
    58   53   54 1   
    59   53   55 2   
    60   54   60 1   
    61   54   61 1   
    62   62   63 1   
    63   62   66 1   
    64   63   64 1   
    65   63   67 1   
    66   63   68 1   
    67   64   65 2   
    68   64   69 1   
    69   69   70 1   
    70   69   76 1   
    71   70   71 1   
    72   70   73 1   
    73   70   77 1   
    74   71   72 2   
    75   71   83 1   
    76   73   74 1   
    77   73   75 1   
    78   73   78 1   
    79   74   80 1   
    80   74   81 1   
    81   74   82 1   
    82   75   79 1   
    83   83   84 1   
    84   83   91 1   
    85   84   85 1   
    86   84   87 1   
    87   84   92 1   
    88   85   86 2   
    89   85  102 1   
    90   87   88 1   
    91   87   89 1   
    92   87   93 1   
    93   88   90 1   
    94   88   94 1   
    95   88   95 1   
    96   89   96 1   
    97   89   97 1   
    98   89   98 1   
    99   90   99 1   
   100   90  100 1   
   101   90  101 1   
   102  102  103 1   
   103  102  110 1   
   104  103  104 1   
   105  103  106 1   
   106  103  111 1   
   107  104  105 2   
   108  104  114 1   
   109  106  107 1   
   110  106  112 1   
   111  106  113 1   
   112  107  108 1   
   113  107  109 1   
   114  114  115 1   
   115  114  125 1   
   116  115  116 1   
   117  115  118 1   
   118  115  126 1   
   119  116  117 2   
   120  116  134 1   
   121  118  119 1   
   122  118  127 1   
   123  118  128 1   
   124  119  120 ar  
   125  119  121 ar  
   126  120  122 ar  
   127  120  129 1   
   128  121  123 ar  
   129  121  130 1   
   130  122  124 ar  
   131  122  131 1   
   132  123  124 ar  
   133  123  132 1   
   134  124  133 1   
   135  134  135 1   
   136  134  140 1   
   137  135  136 1   
   138  135  138 1   
   139  135  141 1   
   140  136  137 2   
   141  136  148 1   
   142  138  139 1   
   143  138  142 1   
   144  138  143 1   
   145  139  140 1   
   146  139  144 1   
   147  139  145 1   
   148  140  146 1   
   149  140  147 1   
   150  148  149 1   
   151  148  157 1   
   152  149  150 1   
   153  149  152 1   
   154  149  158 1   
   155  150  151 2   
   156  150  163 1   
   157  152  153 1   
   158  152  159 1   
   159  152  160 1   
   160  153  154 1   
   161  153  161 1   
   162  153  162 1   
   163  154  155 1   
   164  154  156 1   
   165  163  164 1   
   166  163  168 1   
   167  164  165 1   
   168  164  166 1   
   169  164  167 1   
   170  170  171 1   
   171  170  172 1   
@<TRIPOS>SUBSTRUCTURE
     1 MOL         1 TEMP              0 ****  ****    0 ROOT
