@<TRIPOS>MOLECULE
MOL
  178   175     1     0     0
SMALL
resp


@<TRIPOS>ATOM
      1 C1          0.7220   -3.1890    5.5730 c3        1 MOL     -0.309684
      2 C2          0.9110   -2.5490    4.1790 c         1 MOL      0.647497
      3 O1          0.0920   -2.7360    3.2370 o         1 MOL     -0.553820
      4 H1          1.6130   -3.0170    6.1760 hc        1 MOL      0.080900
      5 H2         -0.1420   -2.7420    6.0650 hc        1 MOL      0.080900
      6 H3          0.5620   -4.2620    5.4610 hc        1 MOL      0.080900
      7 N1          2.0340   -1.8590    4.0110 n         1 MOL     -0.578244
      8 C3          2.6650   -1.6740    2.7390 c3        1 MOL      0.211810
      9 C4          3.3090   -3.1090    2.3620 c         1 MOL      0.668035
     10 O2          4.1670   -3.6720    2.9790 o         1 MOL     -0.600986
     11 C5          3.6570   -0.5030    2.8170 c3        1 MOL     -0.258064
     12 C6          4.3000   -0.1820    1.4810 c         1 MOL      0.924255
     13 O3          5.3790    0.4390    1.5110 o         1 MOL     -0.713962
     14 O4          3.7860   -0.6880    0.4900 o         1 MOL     -0.713962
     15 H4          2.6450   -1.6970    4.7990 hn        1 MOL      0.315469
     16 H5          1.9020   -1.5380    1.9700 h1        1 MOL     -0.054331
     17 H6          4.5120   -0.8560    3.4030 hc        1 MOL      0.028564
     18 H7          3.1290    0.4020    3.1230 hc        1 MOL      0.028564
     19 N2          2.6520   -3.7020    1.3020 n         1 MOL     -0.433532
     20 C7          2.8610   -5.0140    0.7670 c3        1 MOL      0.096319
     21 C8          3.7870   -5.1470   -0.4900 c         1 MOL      0.429676
     22 O5          4.1120   -6.2560   -0.9340 o         1 MOL     -0.543674
     23 C9          1.4950   -5.6730    0.4510 c3        1 MOL     -0.257444
     24 H8          1.9500   -3.1310    0.8370 hn        1 MOL      0.303819
     25 H9          3.3500   -5.6180    1.5390 h1        1 MOL      0.053268
     26 H10         1.6540   -6.7370    0.3080 hc        1 MOL      0.076655
     27 H11         0.7380   -5.4830    1.2130 hc        1 MOL      0.076655
     28 H12         1.2190   -5.2650   -0.5200 hc        1 MOL      0.076655
     29 N3          4.2370   -3.9820   -1.0130 n         1 MOL     -0.184812
     30 C10         5.3530   -3.8280   -1.9430 c3        1 MOL     -0.185842
     31 C11         6.4850   -2.8020   -1.6170 c         1 MOL      0.463241
     32 O6          7.4460   -2.7330   -2.4290 o         1 MOL     -0.511902
     33 C12         4.8740   -3.5510   -3.3820 c3        1 MOL     -0.035210
     34 C13         3.9540   -2.3050   -3.6060 c         1 MOL      0.818129
     35 O7          3.7590   -1.9200   -4.7600 o         1 MOL     -0.743450
     36 O8          3.2680   -1.9310   -2.6260 o         1 MOL     -0.743450
     37 H13         3.6740   -3.2200   -0.6700 hn        1 MOL      0.139051
     38 H14         5.8800   -4.7790   -1.9530 h1        1 MOL      0.134493
     39 H15         4.3640   -4.4300   -3.7630 hc        1 MOL      0.010899
     40 H16         5.6460   -3.3580   -4.1390 hc        1 MOL      0.010899
     41 N4          6.4090   -2.2460   -0.4160 n         1 MOL     -0.216360
     42 C14         7.5490   -1.6110    0.2140 c3        1 MOL     -0.088568
     43 C15         7.9460   -0.2540   -0.4460 c         1 MOL      0.398176
     44 O9          9.1710    0.0850   -0.5720 o         1 MOL     -0.572521
     45 H17         5.5280   -2.3510    0.0690 hn        1 MOL      0.151392
     46 H18         8.4170   -2.2700    0.1610 h1        1 MOL      0.090961
     47 H19         7.3610   -1.4210    1.2680 h1        1 MOL      0.090961
     48 N5          6.9340    0.5080   -0.8160 n         1 MOL     -0.087505
     49 C16         7.0420    1.8480   -1.4220 c3        1 MOL      0.008935
     50 C17         6.9230    2.9920   -0.4590 c         1 MOL      0.373615
     51 O10         7.0900    4.1660   -0.8500 o         1 MOL     -0.544132
     52 C18         5.9480    1.8550   -2.5350 c3        1 MOL     -0.260612
     53 C19         4.7280    2.5220   -1.9080 c         1 MOL      0.318344
     54 N6          4.5170    3.8340   -2.0720 n         1 MOL     -0.498108
     55 O11         3.9280    1.8880   -1.1950 o         1 MOL     -0.424850
     56 H20         6.0180    0.2620   -0.4460 hn        1 MOL      0.028832
     57 H21         8.0010    1.9840   -1.9330 h1        1 MOL      0.116090
     58 H22         5.6960    0.8500   -2.8700 hc        1 MOL      0.126636
     59 H23         6.3640    2.4500   -3.3480 hc        1 MOL      0.126636
     60 H24         5.0830    4.2340   -2.8010 hn        1 MOL      0.295740
     61 H25         3.6010    4.2010   -1.8050 hn        1 MOL      0.295740
     62 N7          6.6050    2.7190    0.7990 n         1 MOL     -0.180386
     63 C20         6.4120    3.7620    1.7910 c3        1 MOL     -0.186885
     64 C21         4.9540    4.2590    1.9870 c         1 MOL      0.570993
     65 O12         4.7110    4.9560    2.9540 o         1 MOL     -0.585548
     66 H26         6.4530    1.7580    1.0880 hn        1 MOL      0.258059
     67 H27         7.0430    4.5740    1.4510 h1        1 MOL      0.105419
     68 H28         6.7680    3.3860    2.7540 h1        1 MOL      0.105419
     69 N8          3.9850    3.8010    1.1910 n         1 MOL     -0.214808
     70 C22         2.5690    3.9590    1.4610 c3        1 MOL      0.024955
     71 C23         1.6210    2.7200    1.3530 c         1 MOL      0.501860
     72 O13         1.9550    1.6880    0.7420 o         1 MOL     -0.548134
     73 C24         1.9180    5.1590    0.6200 c3        1 MOL      0.380854
     74 C25         2.7520    6.4090    0.7040 c3        1 MOL     -0.274260
     75 O14         1.6760    4.7330   -0.6890 oh        1 MOL     -0.635004
     76 H29         4.2570    3.4290    0.2940 hn        1 MOL      0.106322
     77 H30         2.4730    4.3140    2.4900 h1        1 MOL      0.050860
     78 H31         1.0750    5.4680    1.2390 h1        1 MOL     -0.004138
     79 H32         1.9270    5.3840   -1.3480 ho        1 MOL      0.405253
     80 H33         3.4970    6.2660   -0.0810 hc        1 MOL      0.062303
     81 H34         2.1270    7.2200    0.3510 hc        1 MOL      0.062303
     82 H35         3.0490    6.7000    1.7050 hc        1 MOL      0.062303
     83 N9          0.5060    2.8240    2.0360 n         1 MOL     -0.368588
     84 C26        -0.7120    1.9300    1.8150 c3        1 MOL     -0.241847
     85 C27        -1.7960    2.5570    0.8840 c         1 MOL      0.398965
     86 O15        -2.2490    3.6970    1.1620 o         1 MOL     -0.585569
     87 C28        -1.3050    1.3530    3.0280 c3        1 MOL      0.701295
     88 C29        -2.1400    2.2680    3.9570 c3        1 MOL     -0.092527
     89 C30        -0.2430    0.6290    3.8910 c3        1 MOL     -0.368765
     90 C31        -2.8940    1.5150    5.1190 c3        1 MOL     -0.056594
     91 H36         0.3130    3.5570    2.6930 hn        1 MOL      0.259118
     92 H37        -0.4140    1.0100    1.3210 h1        1 MOL      0.084296
     93 H38        -2.0840    0.6750    2.6960 hc        1 MOL     -0.249209
     94 H39        -2.9400    2.7810    3.4240 hc        1 MOL      0.006301
     95 H40        -1.4260    2.9890    4.3450 hc        1 MOL      0.006301
     96 H41         0.2970    1.3880    4.4490 hc        1 MOL      0.062840
     97 H42        -0.7310   -0.0960    4.5560 hc        1 MOL      0.062840
     98 H43         0.4810    0.0470    3.3130 hc        1 MOL      0.062840
     99 H44        -2.0960    1.1970    5.7970 hc        1 MOL      0.002040
    100 H45        -3.5890    2.1910    5.6030 hc        1 MOL      0.002040
    101 H46        -3.4300    0.6560    4.7480 hc        1 MOL      0.002040
    102 N10        -2.3220    1.8370   -0.1110 n         1 MOL     -0.071862
    103 C32        -3.3280    2.1720   -1.1050 c3        1 MOL     -0.015668
    104 C33        -4.6940    1.6040   -0.5930 c         1 MOL      0.494115
    105 O16        -4.6890    0.7940    0.3840 o         1 MOL     -0.453738
    106 C34        -2.9340    1.6290   -2.4670 c3        1 MOL     -0.225042
    107 C35        -3.9100    2.2110   -3.4400 c         1 MOL      0.683453
    108 O17        -4.2460    1.4470   -4.4230 o         1 MOL     -0.693137
    109 O18        -4.3530    3.3980   -3.3130 o         1 MOL     -0.693137
    110 H47        -2.0310    0.8920   -0.3050 hn        1 MOL      0.157567
    111 H48        -3.4520    3.2540   -1.1300 h1        1 MOL      0.077633
    112 H49        -3.0570    0.5580   -2.3180 hc        1 MOL      0.070463
    113 H50        -1.8990    1.9120   -2.6500 hc        1 MOL      0.070463
    114 N11        -5.8810    1.9090   -1.2290 n         1 MOL     -0.638602
    115 C36        -7.1550    1.2500   -0.7530 c3        1 MOL      0.550013
    116 C37        -7.2060   -0.2910   -0.7380 c         1 MOL      0.166966
    117 O19        -7.9280   -0.8060    0.1250 o         1 MOL     -0.440264
    118 C38        -8.2890    1.8650   -1.5290 c3        1 MOL     -0.220185
    119 C39        -9.6250    1.4470   -0.8570 ca        1 MOL      0.118901
    120 C40        -9.9740    1.8620    0.4190 ca        1 MOL     -0.223729
    121 C41       -10.5090    0.6560   -1.5760 ca        1 MOL     -0.223729
    122 C42       -11.1270    1.4180    1.0890 ca        1 MOL     -0.037905
    123 C43       -11.8340    0.3800   -0.9800 ca        1 MOL     -0.037905
    124 C44       -12.1090    0.7820    0.3510 ca        1 MOL     -0.181726
    125 H51        -5.8340    2.5660   -1.9940 hn        1 MOL      0.307850
    126 H52        -7.3200    1.6930    0.2280 h1        1 MOL     -0.006633
    127 H53        -8.2630    1.5600   -2.5770 hc        1 MOL      0.076812
    128 H54        -8.3320    2.9480   -1.4830 hc        1 MOL      0.076812
    129 H55        -9.1460    2.4000    0.8750 ha        1 MOL      0.117202
    130 H56       -10.2570    0.4210   -2.6000 ha        1 MOL      0.117202
    131 H57       -11.3530    1.7360    2.1010 ha        1 MOL      0.084194
    132 H58       -12.6990   -0.0300   -1.4790 ha        1 MOL      0.084194
    133 H59       -13.0740    0.5220    0.7550 ha        1 MOL      0.109801
    134 N12        -6.5720   -1.0040   -1.6500 n         1 MOL     -0.010908
    135 C45        -6.4510   -2.4360   -1.5890 c3        1 MOL      0.077406
    136 C46        -5.7410   -2.9780   -0.3300 c         1 MOL      0.297708
    137 O20        -6.3270   -3.7690    0.4300 o         1 MOL     -0.492505
    138 C47        -5.8130   -2.8640   -2.8860 c3        1 MOL     -0.026817
    139 C48        -6.1810   -1.7800   -3.8920 c3        1 MOL     -0.055035
    140 C49        -5.9720   -0.6140   -2.9400 c3        1 MOL     -0.013974
    141 H60        -7.4700   -2.8130   -1.5520 h1        1 MOL      0.033132
    142 H61        -4.7370   -2.8760   -2.7790 hc        1 MOL      0.014403
    143 H62        -6.1830   -3.8330   -3.2060 hc        1 MOL      0.014403
    144 H63        -5.5230   -1.7530   -4.7680 hc        1 MOL      0.040860
    145 H64        -7.1970   -1.8360   -4.2850 hc        1 MOL      0.040860
    146 H65        -4.9140   -0.4030   -2.7370 h1        1 MOL      0.034556
    147 H66        -6.3620    0.3030   -3.3770 h1        1 MOL      0.034556
    148 N13        -4.5720   -2.4490    0.0250 n         1 MOL     -0.294735
    149 C50        -3.7570   -2.6950    1.2240 c3        1 MOL      0.052478
    150 C51        -4.4690   -2.2080    2.5300 c         1 MOL      0.361663
    151 O21        -4.4730   -3.0210    3.4500 o         1 MOL     -0.565983
    152 C52        -2.3420   -2.0410    1.1190 c3        1 MOL     -0.124968
    153 C53        -1.4540   -2.6600    0.0750 c3        1 MOL     -0.146912
    154 C54        -0.2470   -1.8610   -0.2280 c         1 MOL      0.725368
    155 O22        -0.3300   -0.6360   -0.4190 o         1 MOL     -0.694442
    156 O23         0.8540   -2.3550   -0.4790 o         1 MOL     -0.694442
    157 H67        -4.3090   -1.6640   -0.5460 hn        1 MOL      0.253058
    158 H68        -3.5540   -3.7580    1.3700 h1        1 MOL      0.090049
    159 H69        -1.8000   -2.2360    2.0540 hc        1 MOL      0.107866
    160 H70        -2.5010   -0.9880    0.8780 hc        1 MOL      0.107866
    161 H71        -1.9370   -2.9220   -0.8670 hc        1 MOL      0.033884
    162 H72        -1.1540   -3.6680    0.3770 hc        1 MOL      0.033884
    163 N14        -5.1710   -1.0870    2.5230 n         1 MOL      0.153568
    164 C55        -6.0560   -0.6940    3.6060 c3        1 MOL     -0.169385
    165 H73        -7.0520   -0.4990    3.2080 h1        1 MOL      0.062821
    166 H74        -6.1110   -1.4970    4.3420 h1        1 MOL      0.062821
    167 H75        -5.6730    0.2100    4.0810 h1        1 MOL      0.062821
    168 H76        -5.1980   -0.5220    1.6870 hn        1 MOL     -0.021923
    169 Ca1         2.0360   -0.0600   -1.2940 Ca        1 MOL      1.681883
    170 O24         3.0260    0.6580   -3.9980 oh        1 MOL     -0.822699
    171 H77         2.4260    1.0590   -4.6280 ho        1 MOL      0.397099
    172 H78         3.1220   -0.2450   -4.3020 ho        1 MOL      0.397099
    173 O25         0.7840    2.1830   -2.0100 oh        1 MOL     -0.822699
    174 H79         0.7760    2.6790   -2.8270 ho        1 MOL      0.397099
    175 H80         0.5730    2.8290   -1.3360 ho        1 MOL      0.397099
    176 O26         0.4100   -0.6850   -3.2010 oh        1 MOL     -0.822699
    177 H81        -0.0600   -0.3670   -3.9750 ho        1 MOL      0.397099
    178 H82         0.5270   -1.6190   -3.3450 ho        1 MOL      0.397099
@<TRIPOS>BOND
     1    1    2 1   
     2    1    4 1   
     3    1    5 1   
     4    1    6 1   
     5    2    3 2   
     6    2    7 1   
     7    7    8 1   
     8    7   15 1   
     9    8    9 1   
    10    8   11 1   
    11    8   16 1   
    12    9   10 2   
    13    9   19 1   
    14   11   12 1   
    15   11   17 1   
    16   11   18 1   
    17   12   13 1   
    18   12   14 1   
    19   19   20 1   
    20   19   24 1   
    21   20   21 1   
    22   20   23 1   
    23   20   25 1   
    24   21   22 2   
    25   21   29 1   
    26   23   26 1   
    27   23   27 1   
    28   23   28 1   
    29   29   30 1   
    30   29   37 1   
    31   30   31 1   
    32   30   33 1   
    33   30   38 1   
    34   31   32 2   
    35   31   41 1   
    36   33   34 1   
    37   33   39 1   
    38   33   40 1   
    39   34   35 1   
    40   34   36 1   
    41   41   42 1   
    42   41   45 1   
    43   42   43 1   
    44   42   46 1   
    45   42   47 1   
    46   43   44 2   
    47   43   48 1   
    48   48   49 1   
    49   48   56 1   
    50   49   50 1   
    51   49   52 1   
    52   49   57 1   
    53   50   51 2   
    54   50   62 1   
    55   52   53 1   
    56   52   58 1   
    57   52   59 1   
    58   53   54 1   
    59   53   55 2   
    60   54   60 1   
    61   54   61 1   
    62   62   63 1   
    63   62   66 1   
    64   63   64 1   
    65   63   67 1   
    66   63   68 1   
    67   64   65 2   
    68   64   69 1   
    69   69   70 1   
    70   69   76 1   
    71   70   71 1   
    72   70   73 1   
    73   70   77 1   
    74   71   72 2   
    75   71   83 1   
    76   73   74 1   
    77   73   75 1   
    78   73   78 1   
    79   74   80 1   
    80   74   81 1   
    81   74   82 1   
    82   75   79 1   
    83   83   84 1   
    84   83   91 1   
    85   84   85 1   
    86   84   87 1   
    87   84   92 1   
    88   85   86 2   
    89   85  102 1   
    90   87   88 1   
    91   87   89 1   
    92   87   93 1   
    93   88   90 1   
    94   88   94 1   
    95   88   95 1   
    96   89   96 1   
    97   89   97 1   
    98   89   98 1   
    99   90   99 1   
   100   90  100 1   
   101   90  101 1   
   102  102  103 1   
   103  102  110 1   
   104  103  104 1   
   105  103  106 1   
   106  103  111 1   
   107  104  105 2   
   108  104  114 1   
   109  106  107 1   
   110  106  112 1   
   111  106  113 1   
   112  107  108 1   
   113  107  109 1   
   114  114  115 1   
   115  114  125 1   
   116  115  116 1   
   117  115  118 1   
   118  115  126 1   
   119  116  117 2   
   120  116  134 1   
   121  118  119 1   
   122  118  127 1   
   123  118  128 1   
   124  119  120 ar  
   125  119  121 ar  
   126  120  122 ar  
   127  120  129 1   
   128  121  123 ar  
   129  121  130 1   
   130  122  124 ar  
   131  122  131 1   
   132  123  124 ar  
   133  123  132 1   
   134  124  133 1   
   135  134  135 1   
   136  134  140 1   
   137  135  136 1   
   138  135  138 1   
   139  135  141 1   
   140  136  137 2   
   141  136  148 1   
   142  138  139 1   
   143  138  142 1   
   144  138  143 1   
   145  139  140 1   
   146  139  144 1   
   147  139  145 1   
   148  140  146 1   
   149  140  147 1   
   150  148  149 1   
   151  148  157 1   
   152  149  150 1   
   153  149  152 1   
   154  149  158 1   
   155  150  151 2   
   156  150  163 1   
   157  152  153 1   
   158  152  159 1   
   159  152  160 1   
   160  153  154 1   
   161  153  161 1   
   162  153  162 1   
   163  154  155 1   
   164  154  156 1   
   165  163  164 1   
   166  163  168 1   
   167  164  165 1   
   168  164  166 1   
   169  164  167 1   
   170  170  171 1   
   171  170  172 1   
   172  173  174 1   
   173  173  175 1   
   174  176  177 1   
   175  176  178 1   
@<TRIPOS>SUBSTRUCTURE
     1 MOL         1 TEMP              0 ****  ****    0 ROOT
