@<TRIPOS>MOLECULE
MOL
  176   174     1     0     0
SMALL
resp


@<TRIPOS>ATOM
      1 C1          0.7330    4.6890    6.2990 c3        1 MOL     -0.380158
      2 C2          0.6270    3.8990    4.9590 c         1 MOL      0.731667
      3 O1          1.6030    3.4710    4.4360 o         1 MOL     -0.565473
      4 H1         -0.2670    4.8920    6.6800 hc        1 MOL      0.095138
      5 H2          1.2850    4.0960    7.0270 hc        1 MOL      0.095138
      6 H3          1.2540    5.6300    6.1260 hc        1 MOL      0.095138
      7 N1         -0.5940    3.5680    4.5110 n         1 MOL     -0.613164
      8 C3         -0.6740    3.2480    3.1050 c3        1 MOL      0.027045
      9 C4         -1.2320    4.4050    2.3460 c         1 MOL      0.585954
     10 O2         -1.8620    5.3130    2.8410 o         1 MOL     -0.585695
     11 C5         -1.5620    2.0130    2.9350 c3        1 MOL      0.167042
     12 C6         -1.5490    1.2770    1.6390 c         1 MOL      0.539044
     13 O3         -0.9710    1.7040    0.6470 o         1 MOL     -0.746437
     14 O4         -2.3480    0.3480    1.4570 o         1 MOL     -0.746437
     15 H4         -1.4150    3.9430    4.9610 hn        1 MOL      0.331547
     16 H5          0.2870    2.9710    2.6710 h1        1 MOL      0.038852
     17 H6         -2.5560    2.2820    3.3040 hc        1 MOL     -0.023191
     18 H7         -1.1980    1.3340    3.7110 hc        1 MOL     -0.023191
     19 N2         -1.0070    4.3270    1.0490 n         1 MOL     -0.220342
     20 C7         -1.1100    5.4620    0.1040 c3        1 MOL     -0.250145
     21 C8         -2.2900    5.3970   -0.8810 c         1 MOL      0.517993
     22 O5         -2.5500    6.2330   -1.7570 o         1 MOL     -0.554268
     23 C9          0.1980    5.6730   -0.6490 c3        1 MOL     -0.094441
     24 C10         0.6320    4.5250   -1.5790 c3        1 MOL     -0.096130
     25 C11         1.9840    4.7980   -2.2620 c3        1 MOL      0.080865
     26 C12         2.2030    6.0450   -3.1290 c3        1 MOL     -0.062000
     27 N3          1.3650    5.9970   -4.3680 n4        1 MOL     -0.262991
     28 H8         -0.4670    3.5350    0.7280 hn        1 MOL      0.254442
     29 H9         -1.2790    6.3420    0.7250 h1        1 MOL      0.146025
     30 H10         0.9460    5.8610    0.1130 hc        1 MOL      0.063182
     31 H11         0.1250    6.5480   -1.2980 hc        1 MOL      0.063182
     32 H12        -0.0510    4.3860   -2.4110 hc        1 MOL      0.054509
     33 H13         0.7240    3.5630   -1.0720 hc        1 MOL      0.054509
     34 H14         2.3030    3.9620   -2.8840 hc        1 MOL      0.054690
     35 H15         2.7610    4.8630   -1.4970 hc        1 MOL      0.054690
     36 H16         3.2280    5.8750   -3.4370 hx        1 MOL      0.084967
     37 H17         2.1070    6.9150   -2.4810 hx        1 MOL      0.084967
     38 H18         1.5060    6.8320   -4.9300 hn        1 MOL      0.305555
     39 H19         1.6230    5.2180   -4.9500 hn        1 MOL      0.305555
     40 H20         0.3680    5.8850   -4.2520 hn        1 MOL      0.305555
     41 N4         -3.1010    4.3540   -0.6800 n         1 MOL     -0.201293
     42 C13        -4.3820    4.1090   -1.3200 c3        1 MOL     -0.008848
     43 C14        -5.1390    3.0270   -0.5560 c         1 MOL      0.559450
     44 O6         -4.5230    2.3110    0.2020 o         1 MOL     -0.456310
     45 C15        -4.3120    3.8120   -2.8270 c3        1 MOL     -0.151683
     46 C16        -3.3060    2.7380   -3.1200 c         1 MOL      0.748650
     47 O7         -3.0300    1.8590   -2.3100 o         1 MOL     -0.717988
     48 O8         -2.9810    2.5550   -4.2630 o         1 MOL     -0.717988
     49 H21        -2.8920    3.7380    0.0880 hn        1 MOL      0.146705
     50 H22        -4.9960    4.9780   -1.1200 h1        1 MOL      0.024718
     51 H23        -3.9930    4.7510   -3.2780 hc        1 MOL      0.033043
     52 H24        -5.3100    3.5420   -3.1670 hc        1 MOL      0.033043
     53 N5         -6.4760    2.9690   -0.6450 n         1 MOL     -0.424164
     54 C17        -7.3450    2.3220    0.2970 c3        1 MOL     -0.108550
     55 C18        -7.5190    0.7910    0.1530 c         1 MOL      0.448288
     56 O9         -8.5670    0.2640    0.6030 o         1 MOL     -0.558121
     57 H25        -6.9880    3.5660   -1.2960 hn        1 MOL      0.288886
     58 H26        -8.3830    2.6400    0.1700 h1        1 MOL      0.105623
     59 H27        -7.0800    2.5540    1.3250 h1        1 MOL      0.105623
     60 N6         -6.6940    0.1230   -0.6070 n         1 MOL     -0.197525
     61 C19        -6.8750   -1.2290   -1.1350 c3        1 MOL      0.097601
     62 C20        -6.7080   -2.3790   -0.0810 c         1 MOL      0.351875
     63 O10        -7.0820   -3.5340   -0.3650 o         1 MOL     -0.498923
     64 C21        -5.9230   -1.4910   -2.2970 c3        1 MOL     -0.470133
     65 C22        -4.5480   -2.0380   -2.0090 c         1 MOL      0.858818
     66 N7         -4.2420   -3.2290   -2.4680 n         1 MOL     -0.791859
     67 O11        -3.7990   -1.4440   -1.2890 o         1 MOL     -0.718487
     68 H28        -5.8630    0.5900   -0.9240 hn        1 MOL      0.140888
     69 H29        -7.8860   -1.2930   -1.5380 h1        1 MOL      0.110567
     70 H30        -5.7330   -0.5430   -2.8050 hc        1 MOL      0.142236
     71 H31        -6.4440   -2.2100   -2.9350 hc        1 MOL      0.142236
     72 H32        -4.9300   -3.8040   -2.9210 hn        1 MOL      0.364069
     73 H33        -3.3440   -3.6610   -2.2570 hn        1 MOL      0.364069
     74 N8         -6.0470   -2.0450    1.0520 n         1 MOL     -0.154365
     75 C23        -5.9580   -2.8690    2.2720 c3        1 MOL     -0.240602
     76 C24        -4.5750   -3.3680    2.7740 c         1 MOL      0.571183
     77 O12        -4.4430   -3.8870    3.8350 o         1 MOL     -0.521698
     78 H34        -5.6000   -1.1370    1.0910 hn        1 MOL      0.234817
     79 H35        -6.5530   -3.7680    2.0930 h1        1 MOL      0.129792
     80 H36        -6.4500   -2.2940    3.0480 h1        1 MOL      0.129792
     81 N9         -3.4840   -3.1440    1.9470 n         1 MOL     -0.362766
     82 C25        -2.1390   -3.6330    2.2020 c3        1 MOL      0.090563
     83 C26        -0.9770   -2.8060    1.6530 c         1 MOL      0.315851
     84 O13        -1.1900   -2.1600    0.5700 o         1 MOL     -0.461916
     85 C27        -1.9500   -5.0990    1.7550 c3        1 MOL     -0.357428
     86 C28        -2.1330   -5.4250    0.2350 ca        1 MOL      0.170776
     87 C29        -1.0720   -5.2660   -0.6430 ca        1 MOL     -0.194615
     88 C30        -3.3650   -5.9320   -0.2350 ca        1 MOL     -0.194615
     89 C31        -1.2460   -5.5130   -1.9810 ca        1 MOL     -0.258306
     90 C32        -3.4810   -6.3440   -1.5850 ca        1 MOL     -0.258306
     91 C33        -2.4240   -6.1180   -2.4630 ca        1 MOL      0.329664
     92 O14        -2.4970   -6.2880   -3.7900 oh        1 MOL     -0.471149
     93 H37        -3.5960   -2.8010    0.9980 hn        1 MOL      0.252517
     94 H38        -2.0190   -3.6440    3.2940 h1        1 MOL      0.093190
     95 H39        -2.7320   -5.6710    2.2680 hc        1 MOL      0.127114
     96 H40        -0.9620   -5.4490    2.0720 hc        1 MOL      0.127114
     97 H41        -0.2580   -4.6560   -0.2760 ha        1 MOL      0.169323
     98 H42        -4.2200   -6.1210    0.4080 ha        1 MOL      0.169323
     99 H43        -0.3800   -5.3480   -2.6110 ha        1 MOL      0.153577
    100 H44        -4.4430   -6.6940   -1.9090 ha        1 MOL      0.153577
    101 H45        -1.6690   -5.9560   -4.1590 ho        1 MOL      0.335779
    102 N10         0.2190   -2.8830    2.2580 n         1 MOL     -0.248062
    103 C34         1.5280   -2.2930    1.8110 c3        1 MOL     -0.102346
    104 C35         2.6030   -3.2760    1.2920 c         1 MOL      0.409239
    105 O15         2.6110   -4.4410    1.7490 o         1 MOL     -0.516832
    106 C36         2.0370   -1.2530    2.8100 c3        1 MOL      0.062317
    107 C37         2.5590   -2.0060    4.0610 c3        1 MOL     -0.011821
    108 C38         1.0980   -0.1830    3.3000 c3        1 MOL      0.104310
    109 C39         3.1720   -1.1660    5.1850 c3        1 MOL     -0.248493
    110 H46         0.1900   -3.4990    3.0530 hn        1 MOL      0.228194
    111 H47         1.2360   -1.7560    0.9060 h1        1 MOL      0.172532
    112 H48         2.8520   -0.6400    2.4240 hc        1 MOL     -0.117113
    113 H49         3.3010   -2.7250    3.7270 hc        1 MOL      0.029380
    114 H50         1.7770   -2.5460    4.5950 hc        1 MOL      0.029380
    115 H51         1.5560    0.5660    3.9490 hc        1 MOL      0.007692
    116 H52         0.7840    0.3230    2.3860 hc        1 MOL      0.007692
    117 H53         0.3460   -0.7010    3.9020 hc        1 MOL      0.007692
    118 H54         3.4990   -1.7290    6.0490 hc        1 MOL      0.068469
    119 H55         3.9490   -0.6020    4.6690 hc        1 MOL      0.068469
    120 H56         2.3550   -0.5600    5.5700 hc        1 MOL      0.068469
    121 N11         3.5480   -2.7530    0.4560 n         1 MOL     -0.261144
    122 C40         4.6540   -3.4420    0.0270 c3        1 MOL      0.328966
    123 C41         5.8550   -2.5530    0.2190 c         1 MOL      0.211341
    124 O16         5.8330   -1.4140    0.6340 o         1 MOL     -0.297315
    125 C42         4.4580   -3.8230   -1.4460 c3        1 MOL      0.205226
    126 O17         3.4140   -4.6660   -1.6170 oh        1 MOL     -0.570893
    127 H57         3.5350   -1.7630    0.2700 hn        1 MOL      0.116660
    128 H58         4.7870   -4.3270    0.6510 h1        1 MOL      0.037484
    129 H59         5.3570   -4.3290   -1.8130 h1        1 MOL     -0.016209
    130 H60         4.3220   -2.8580   -1.9400 h1        1 MOL     -0.016209
    131 H61         2.6630   -4.1840   -1.9730 ho        1 MOL      0.374975
    132 N12         7.1040   -2.9310   -0.1070 n         1 MOL     -0.404817
    133 C43         8.3530   -2.1580    0.1000 c3        1 MOL      0.271426
    134 C44         8.2910   -0.8330   -0.6830 c         1 MOL      0.338339
    135 O18         8.6880    0.2060   -0.2260 o         1 MOL     -0.483647
    136 C45         9.5530   -3.1200   -0.1430 c3        1 MOL     -0.457938
    137 H62         7.2560   -3.9050   -0.3170 hn        1 MOL      0.232810
    138 H63         8.3700   -1.8640    1.1430 h1        1 MOL      0.055910
    139 H64         9.4480   -3.5260   -1.1450 hc        1 MOL      0.140272
    140 H65        10.5470   -2.6650   -0.0380 hc        1 MOL      0.140272
    141 H66         9.5100   -3.8540    0.6570 hc        1 MOL      0.140272
    142 N13         7.7170   -0.8710   -1.9150 n         1 MOL     -0.206135
    143 C46         7.4880    0.2690   -2.7830 c3        1 MOL     -0.005091
    144 C47         6.4810    1.2190   -2.1920 c         1 MOL      0.353127
    145 O19         6.4290    2.3910   -2.6460 o         1 MOL     -0.537190
    146 C48         7.1230   -0.2370   -4.1020 c3        1 MOL     -0.201470
    147 H67         7.5390   -1.7800   -2.3170 hn        1 MOL      0.159222
    148 H68         8.4290    0.8110   -2.8900 h1        1 MOL      0.128588
    149 H69         7.0650    0.6010   -4.7950 hc        1 MOL      0.070786
    150 H70         7.8650   -0.9000   -4.5450 hc        1 MOL      0.070786
    151 H71         6.1890   -0.8000   -4.1160 hc        1 MOL      0.070786
    152 N14         5.6770    0.8880   -1.1850 n         1 MOL     -0.013890
    153 C49         4.6460    1.6450   -0.5700 c3        1 MOL      0.009255
    154 C50         4.9970    2.0950    0.8480 c         1 MOL      0.375924
    155 O20         4.6360    3.2440    1.2430 o         1 MOL     -0.533505
    156 C51         3.3210    0.8110   -0.5530 c3        1 MOL     -0.111980
    157 C52         2.7330    0.7280   -1.9880 c3        1 MOL     -0.126124
    158 C53         1.2790    0.1260   -1.9270 c         1 MOL      0.854556
    159 O21         0.9420   -0.8750   -1.2650 o         1 MOL     -0.831069
    160 O22         0.3580    0.8140   -2.3930 o         1 MOL     -0.831069
    161 H72         5.8180   -0.0440   -0.8170 hn        1 MOL      0.033068
    162 H73         4.4310    2.5740   -1.0940 h1        1 MOL      0.034178
    163 H74         2.6190    1.3820    0.0600 hc        1 MOL      0.107620
    164 H75         3.4590   -0.1320   -0.0100 hc        1 MOL      0.107620
    165 H76         3.2370   -0.0180   -2.5970 hc        1 MOL      0.001160
    166 H77         2.7540    1.6930   -2.4860 hc        1 MOL      0.001160
    167 N15         5.6520    1.3100    1.6570 n         1 MOL     -0.076135
    168 C54         6.4220    1.7050    2.8790 c3        1 MOL     -0.132022
    169 H78         7.4490    1.9390    2.6010 h1        1 MOL      0.076101
    170 H79         5.9600    2.5810    3.3330 h1        1 MOL      0.076101
    171 H80         6.4180    0.8810    3.5940 h1        1 MOL      0.076101
    172 H81         6.0360    0.4240    1.3530 hn        1 MOL      0.113783
    173 Ca1        -1.7460   -0.0580   -1.0910 Ca        1 MOL      1.767973
    174 O23        -1.1430   -1.8280   -2.9610 oh        1 MOL     -0.868692
    175 H82        -1.2470   -1.7710   -3.9040 ho        1 MOL      0.422818
    176 H83        -0.3830   -2.4000   -2.8430 ho        1 MOL      0.422818
@<TRIPOS>BOND
     1    1    2 1   
     2    1    4 1   
     3    1    5 1   
     4    1    6 1   
     5    2    3 2   
     6    2    7 1   
     7    7    8 1   
     8    7   15 1   
     9    8    9 1   
    10    8   11 1   
    11    8   16 1   
    12    9   10 2   
    13    9   19 1   
    14   11   12 1   
    15   11   17 1   
    16   11   18 1   
    17   12   13 1   
    18   12   14 1   
    19   19   20 1   
    20   19   28 1   
    21   20   21 1   
    22   20   23 1   
    23   20   29 1   
    24   21   22 2   
    25   21   41 1   
    26   23   24 1   
    27   23   30 1   
    28   23   31 1   
    29   24   25 1   
    30   24   32 1   
    31   24   33 1   
    32   25   26 1   
    33   25   34 1   
    34   25   35 1   
    35   26   27 1   
    36   26   36 1   
    37   26   37 1   
    38   27   38 1   
    39   27   39 1   
    40   27   40 1   
    41   41   42 1   
    42   41   49 1   
    43   42   43 1   
    44   42   45 1   
    45   42   50 1   
    46   43   44 2   
    47   43   53 1   
    48   45   46 1   
    49   45   51 1   
    50   45   52 1   
    51   46   47 1   
    52   46   48 1   
    53   53   54 1   
    54   53   57 1   
    55   54   55 1   
    56   54   58 1   
    57   54   59 1   
    58   55   56 2   
    59   55   60 1   
    60   60   61 1   
    61   60   68 1   
    62   61   62 1   
    63   61   64 1   
    64   61   69 1   
    65   62   63 2   
    66   62   74 1   
    67   64   65 1   
    68   64   70 1   
    69   64   71 1   
    70   65   66 1   
    71   65   67 2   
    72   66   72 1   
    73   66   73 1   
    74   74   75 1   
    75   74   78 1   
    76   75   76 1   
    77   75   79 1   
    78   75   80 1   
    79   76   77 2   
    80   76   81 1   
    81   81   82 1   
    82   81   93 1   
    83   82   83 1   
    84   82   85 1   
    85   82   94 1   
    86   83   84 2   
    87   83  102 1   
    88   85   86 1   
    89   85   95 1   
    90   85   96 1   
    91   86   87 ar  
    92   86   88 ar  
    93   87   89 ar  
    94   87   97 1   
    95   88   90 ar  
    96   88   98 1   
    97   89   91 ar  
    98   89   99 1   
    99   90   91 ar  
   100   90  100 1   
   101   91   92 1   
   102   92  101 1   
   103  102  103 1   
   104  102  110 1   
   105  103  104 1   
   106  103  106 1   
   107  103  111 1   
   108  104  105 2   
   109  104  121 1   
   110  106  107 1   
   111  106  108 1   
   112  106  112 1   
   113  107  109 1   
   114  107  113 1   
   115  107  114 1   
   116  108  115 1   
   117  108  116 1   
   118  108  117 1   
   119  109  118 1   
   120  109  119 1   
   121  109  120 1   
   122  121  122 1   
   123  121  127 1   
   124  122  123 1   
   125  122  125 1   
   126  122  128 1   
   127  123  124 2   
   128  123  132 1   
   129  125  126 1   
   130  125  129 1   
   131  125  130 1   
   132  126  131 1   
   133  132  133 1   
   134  132  137 1   
   135  133  134 1   
   136  133  136 1   
   137  133  138 1   
   138  134  135 2   
   139  134  142 1   
   140  136  139 1   
   141  136  140 1   
   142  136  141 1   
   143  142  143 1   
   144  142  147 1   
   145  143  144 1   
   146  143  146 1   
   147  143  148 1   
   148  144  145 2   
   149  144  152 1   
   150  146  149 1   
   151  146  150 1   
   152  146  151 1   
   153  152  153 1   
   154  152  161 1   
   155  153  154 1   
   156  153  156 1   
   157  153  162 1   
   158  154  155 2   
   159  154  167 1   
   160  156  157 1   
   161  156  163 1   
   162  156  164 1   
   163  157  158 1   
   164  157  165 1   
   165  157  166 1   
   166  158  159 1   
   167  158  160 1   
   168  167  168 1   
   169  167  172 1   
   170  168  169 1   
   171  168  170 1   
   172  168  171 1   
   173  174  175 1   
   174  174  176 1   
@<TRIPOS>SUBSTRUCTURE
     1 MOL         1 TEMP              0 ****  ****    0 ROOT
