@<TRIPOS>MOLECULE
MOL
  189   185     1     0     0
SMALL
resp


@<TRIPOS>ATOM
      1 C1         -1.4250   -0.4800    6.6280 c3        1 MOL     -0.270403
      2 C2         -1.0800   -0.1960    5.1900 c         1 MOL      0.705980
      3 O1         -0.0230    0.3800    4.8910 o         1 MOL     -0.589837
      4 H1         -2.4990   -0.3670    6.7730 hc        1 MOL      0.067898
      5 H2         -1.1300   -1.4990    6.8790 hc        1 MOL      0.067898
      6 H3         -0.8960    0.2210    7.2740 hc        1 MOL      0.067898
      7 N1         -2.1070   -0.4220    4.3380 n         1 MOL     -0.578401
      8 C3         -2.3080    0.2360    2.9850 c3        1 MOL      0.015222
      9 C4         -2.4820    1.7950    3.2320 c         1 MOL      0.647259
     10 O2         -2.8410    2.2220    4.3140 o         1 MOL     -0.575104
     11 C5         -3.5410   -0.3920    2.3770 c3        1 MOL      0.006717
     12 C6         -4.1500    0.5070    1.3300 c         1 MOL      0.334516
     13 O3         -5.3460    0.8320    1.5670 o         1 MOL     -0.537113
     14 O4         -3.4350    0.9200    0.3540 o         1 MOL     -0.537113
     15 H4         -2.8940   -0.9560    4.6660 hn        1 MOL      0.304325
     16 H5         -1.4280    0.0320    2.3920 h1        1 MOL      0.144578
     17 H6         -4.3080   -0.5760    3.1380 hc        1 MOL      0.012255
     18 H7         -3.2280   -1.3560    1.9880 hc        1 MOL      0.012255
     19 N2         -2.1640    2.6390    2.2460 n         1 MOL     -0.186319
     20 C7         -2.4110    4.0680    2.3790 c3        1 MOL      0.122736
     21 C8         -3.3600    4.6190    1.2940 c         1 MOL      0.404338
     22 O5         -3.8810    5.7050    1.3780 o         1 MOL     -0.565568
     23 C9         -1.1000    4.8510    2.3570 c3        1 MOL     -0.164475
     24 C10        -0.1390    4.3740    1.2380 c3        1 MOL      0.281164
     25 C11         0.4480    5.6180    0.4990 c3        1 MOL      0.048454
     26 C12         1.4760    5.2030   -0.6000 c3        1 MOL      0.029919
     27 N3          0.8810    4.3520   -1.6720 n4        1 MOL     -0.218771
     28 H8         -1.8670    2.2630    1.3510 hn        1 MOL     -0.189428
     29 H9         -3.0150    4.3560    3.2490 h1        1 MOL      0.079024
     30 H10        -0.7200    4.9100    3.3680 hc        1 MOL      0.038841
     31 H11        -1.3260    5.8900    2.1390 hc        1 MOL      0.038841
     32 H12        -0.5520    3.7370    0.4570 hc        1 MOL     -0.023873
     33 H13         0.7380    3.9400    1.7270 hc        1 MOL     -0.023873
     34 H14         0.9090    6.2400    1.2620 hc        1 MOL     -0.007542
     35 H15        -0.4290    6.1700    0.1470 hc        1 MOL     -0.007542
     36 H16         2.2880    4.6720   -0.1100 hx        1 MOL      0.024548
     37 H17         1.7870    6.1620   -1.0160 hx        1 MOL      0.024548
     38 H18         1.5550    3.8380   -2.2300 hn        1 MOL      0.265818
     39 H19         0.1950    3.6910   -1.3210 hn        1 MOL      0.265818
     40 H20         0.3870    4.8660   -2.3780 hn        1 MOL      0.265818
     41 N4         -3.5430    3.8770    0.1750 n         1 MOL     -0.043200
     42 C13        -4.2850    4.3080   -1.0440 c3        1 MOL     -0.054545
     43 C14        -5.7490    3.7700   -1.0730 c         1 MOL      0.402026
     44 O6         -6.5750    3.9870   -2.0110 o         1 MOL     -0.548200
     45 C15        -3.6010    3.8390   -2.4000 c3        1 MOL     -0.085729
     46 C16        -2.0900    3.6230   -2.3630 c         1 MOL      0.690735
     47 O7         -1.5410    2.8310   -1.5980 o         1 MOL     -0.683081
     48 O8         -1.4560    4.3340   -3.1100 o         1 MOL     -0.683081
     49 H21        -2.8930    3.1400   -0.0160 hn        1 MOL      0.020751
     50 H22        -4.4030    5.3960   -1.0040 h1        1 MOL      0.109608
     51 H23        -3.7730    4.6860   -3.0620 hc        1 MOL      0.037157
     52 H24        -4.0600    2.9310   -2.8100 hc        1 MOL      0.037157
     53 N5         -6.2560    3.1550    0.0040 n         1 MOL     -0.236020
     54 C17        -7.6440    2.6590    0.0320 c3        1 MOL     -0.289571
     55 C18        -7.8410    1.3090   -0.6480 c         1 MOL      0.652575
     56 O9         -8.9370    0.8820   -0.6780 o         1 MOL     -0.570650
     57 H25        -5.6050    2.9180    0.7350 hn        1 MOL      0.248822
     58 H26        -8.3110    3.3310   -0.5090 h1        1 MOL      0.141306
     59 H27        -7.9600    2.5750    1.0750 h1        1 MOL      0.141306
     60 N6         -6.7700    0.6800   -1.1890 n         1 MOL     -0.325907
     61 C19        -6.8330   -0.5990   -1.9080 c3        1 MOL     -0.115091
     62 C20        -6.8230   -1.8980   -1.0830 c         1 MOL      0.378505
     63 O10        -7.1010   -2.9970   -1.5690 o         1 MOL     -0.496910
     64 C21        -5.8630   -0.6740   -3.1360 c3        1 MOL     -0.098157
     65 C22        -4.3880   -0.4570   -2.7260 c         1 MOL      0.746417
     66 O11        -3.8380   -1.1160   -1.7840 o         1 MOL     -0.757089
     67 O12        -3.6850    0.3000   -3.4090 o         1 MOL     -0.757089
     68 H28        -5.8490    1.0580   -1.0510 hn        1 MOL      0.257146
     69 H29        -7.8180   -0.5770   -2.3560 h1        1 MOL      0.124954
     70 H30        -6.0890    0.0770   -3.8950 hc        1 MOL      0.048350
     71 H31        -5.9890   -1.6600   -3.5720 hc        1 MOL      0.048350
     72 N7         -6.4060   -1.7820    0.2010 n         1 MOL     -0.049321
     73 C23        -6.2110   -2.8880    1.1280 c3        1 MOL     -0.479061
     74 C24        -5.0570   -3.8390    0.6860 c         1 MOL      0.676602
     75 O13        -5.0170   -4.9630    1.1620 o         1 MOL     -0.589781
     76 H32        -6.2700   -0.8440    0.5490 hn        1 MOL      0.148525
     77 H33        -7.0900   -3.5320    1.0760 h1        1 MOL      0.186149
     78 H34        -6.0090   -2.5010    2.1250 h1        1 MOL      0.186149
     79 N8         -4.0110   -3.3090    0.0410 n         1 MOL     -0.404364
     80 C25        -2.9620   -4.2230   -0.5180 c3        1 MOL      0.136227
     81 C26        -1.6420   -3.4980   -0.4350 c         1 MOL      0.638804
     82 O14        -1.5800   -2.2840   -0.5250 o         1 MOL     -0.541179
     83 C27        -3.4260   -4.7430   -1.8580 c3        1 MOL      0.208776
     84 C28        -2.3890   -5.2560   -2.8140 c3        1 MOL     -0.422198
     85 O15        -4.4470   -5.7130   -1.7190 oh        1 MOL     -0.580269
     86 H35        -4.0820   -2.3570   -0.3070 hn        1 MOL      0.201383
     87 H36        -2.8960   -5.0390    0.2030 h1        1 MOL      0.026129
     88 H37        -3.9400   -3.8970   -2.3040 h1        1 MOL      0.127085
     89 H38        -4.0200   -6.5180   -2.0140 ho        1 MOL      0.380972
     90 H39        -1.7790   -5.9680   -2.2630 hc        1 MOL      0.097482
     91 H40        -2.8070   -5.8400   -3.6300 hc        1 MOL      0.097482
     92 H41        -1.8500   -4.3990   -3.2280 hc        1 MOL      0.097482
     93 N9         -0.6100   -4.2850   -0.2550 n         1 MOL     -0.558547
     94 C29         0.6720   -3.8540    0.2840 c3        1 MOL      0.072920
     95 C30         1.8240   -3.8180   -0.7200 c         1 MOL      0.447451
     96 O16         2.2410   -4.9020   -1.1500 o         1 MOL     -0.530590
     97 C31         0.9760   -4.6580    1.5300 c3        1 MOL      0.021960
     98 C32        -0.0470   -4.4860    2.6470 c3        1 MOL     -0.207325
     99 C33         2.3860   -4.2720    2.1200 c3        1 MOL     -0.311532
    100 C34        -0.3020   -3.0990    3.3120 c3        1 MOL      0.000608
    101 H42        -0.7820   -5.2750   -0.3620 hn        1 MOL      0.310989
    102 H43         0.6170   -2.8470    0.6710 h1        1 MOL      0.190705
    103 H44         1.0180   -5.7490    1.3950 hc        1 MOL      0.036807
    104 H45         0.2560   -5.0950    3.5010 hc        1 MOL      0.063848
    105 H46        -1.0330   -4.8130    2.3330 hc        1 MOL      0.063848
    106 H47         3.1280   -4.5640    1.3840 hc        1 MOL      0.096507
    107 H48         2.3920   -3.2130    2.3880 hc        1 MOL      0.096507
    108 H49         2.5880   -4.7770    3.0580 hc        1 MOL      0.096507
    109 H50        -1.0120   -3.2260    4.1320 hc        1 MOL      0.011096
    110 H51         0.6390   -2.6880    3.6560 hc        1 MOL      0.011096
    111 H52        -0.7680   -2.4090    2.5980 hc        1 MOL      0.011096
    112 N10         2.3410   -2.5810   -1.0290 n         1 MOL     -0.047229
    113 C35         3.5820   -2.4020   -1.8790 c3        1 MOL     -0.239940
    114 C36         4.8110   -2.3060   -1.0510 c         1 MOL      0.579943
    115 O17         4.7860   -2.0940    0.1800 o         1 MOL     -0.410163
    116 C37         3.4720   -1.0970   -2.7030 c3        1 MOL      0.663495
    117 C38         2.6260   -1.2970   -3.9410 c3        1 MOL     -0.476121
    118 O18         3.1220   -0.1400   -1.8170 oh        1 MOL     -0.650333
    119 H53         2.0120   -1.8210   -0.4470 hn        1 MOL     -0.115868
    120 H54         3.5760   -3.1830   -2.6320 h1        1 MOL      0.098671
    121 H55         4.4560   -0.8780   -3.1120 h1        1 MOL     -0.103075
    122 H56         2.2010   -0.2690   -1.5950 ho        1 MOL      0.329789
    123 H57         1.7340   -1.8060   -3.5670 hc        1 MOL      0.109827
    124 H58         2.3080   -0.3290   -4.3260 hc        1 MOL      0.109827
    125 H59         3.1320   -1.9090   -4.6840 hc        1 MOL      0.109827
    126 N11         6.0300   -2.2330   -1.7070 n         1 MOL     -0.470044
    127 C39         7.3270   -1.9590   -1.0330 c3        1 MOL      0.037244
    128 C40         7.3180   -0.6210   -0.2510 c         1 MOL      0.155536
    129 O19         7.8010   -0.5720    0.8900 o         1 MOL     -0.457794
    130 C41         8.5360   -1.9510   -1.9440 c3        1 MOL      0.488533
    131 C42         9.9010   -2.2830   -1.4330 c3        1 MOL     -0.394250
    132 O20         8.4360   -2.8060   -3.0670 oh        1 MOL     -0.654243
    133 H60         6.1840   -2.7010   -2.5920 hn        1 MOL      0.283059
    134 H61         7.3730   -2.7690   -0.3060 h1        1 MOL      0.136285
    135 H62         8.5640   -0.9250   -2.3390 h1        1 MOL     -0.087015
    136 H63         9.2640   -2.6830   -3.5410 ho        1 MOL      0.402968
    137 H64         9.8040   -3.2990   -1.0700 hc        1 MOL      0.104431
    138 H65        10.6180   -2.0130   -2.2180 hc        1 MOL      0.104431
    139 H66        10.0640   -1.7060   -0.5230 hc        1 MOL      0.104431
    140 N12         6.6130    0.3680   -0.7460 n         1 MOL     -0.053564
    141 C43         6.3720    1.6690   -0.0190 c3        1 MOL     -0.016731
    142 C44         5.3470    1.5150    1.1550 c         1 MOL      0.440549
    143 O21         5.0560    2.4930    1.8410 o         1 MOL     -0.559069
    144 C45         6.0550    2.7660   -0.9910 c3        1 MOL     -0.201530
    145 C46         7.1740    3.3500   -1.8560 c3        1 MOL     -0.152235
    146 C47         8.1590    4.0670   -0.9040 c3        1 MOL      0.028165
    147 C48         9.2620    4.8820   -1.7120 c3        1 MOL      0.038568
    148 N13        10.1910    5.6080   -0.7610 n4        1 MOL     -0.411955
    149 H67         6.2660    0.2130   -1.6840 hn        1 MOL      0.209933
    150 H68         7.2960    1.8670    0.5220 h1        1 MOL      0.093481
    151 H69         5.5670    3.6260   -0.5270 hc        1 MOL      0.101397
    152 H70         5.3420    2.3310   -1.6890 hc        1 MOL      0.101397
    153 H71         6.7060    4.0880   -2.5050 hc        1 MOL      0.066746
    154 H72         7.7530    2.6030   -2.3820 hc        1 MOL      0.066746
    155 H73         8.6710    3.3930   -0.2130 hc        1 MOL      0.045178
    156 H74         7.6810    4.7650   -0.2100 hc        1 MOL      0.045178
    157 H75         8.7450    5.5800   -2.3740 hx        1 MOL      0.083452
    158 H76         9.8760    4.2070   -2.3200 hx        1 MOL      0.083452
    159 H77        10.8700    6.0880   -1.3300 hn        1 MOL      0.345776
    160 H78         9.6320    6.2590   -0.2220 hn        1 MOL      0.345776
    161 H79        10.6610    4.9800   -0.1100 hn        1 MOL      0.345776
    162 N14         4.8910    0.3020    1.4690 n         1 MOL     -0.003278
    163 C49         3.9270    0.0710    2.6100 c3        1 MOL     -0.169927
    164 C50         4.2570   -1.1420    3.4600 c         1 MOL      0.498545
    165 O22         3.8400   -1.2630    4.5870 o         1 MOL     -0.513628
    166 C51         2.4990   -0.0810    1.9150 c3        1 MOL      0.314046
    167 C52         1.9610    1.0820    1.0450 c3        1 MOL     -0.134425
    168 C53         0.6560    0.6660    0.3660 c         1 MOL      0.602666
    169 O23         0.7430   -0.1910   -0.5430 o         1 MOL     -0.672799
    170 O24        -0.4270    1.1930    0.5590 o         1 MOL     -0.672799
    171 H80         5.2090   -0.5110    0.9680 hn        1 MOL     -0.166423
    172 H81         3.8630    0.8970    3.3100 h1        1 MOL      0.136842
    173 H82         1.7790   -0.2330    2.7230 hc        1 MOL     -0.031117
    174 H83         2.5990   -0.9060    1.2060 hc        1 MOL     -0.031117
    175 H84         2.6720    1.4150    0.2820 hc        1 MOL      0.026448
    176 H85         1.7340    1.9890    1.6050 hc        1 MOL      0.026448
    177 N15         5.0810   -2.0700    2.9350 n         1 MOL     -0.280778
    178 C54         5.5880   -3.2180    3.7170 c3        1 MOL     -0.220685
    179 H86         6.5330   -3.5570    3.2930 h1        1 MOL      0.099560
    180 H87         5.7440   -2.9130    4.7520 h1        1 MOL      0.099560
    181 H88         4.8620   -4.0300    3.6830 h1        1 MOL      0.099560
    182 H89         5.2320   -2.0250    1.9430 hn        1 MOL      0.304681
    183 Ca1        -1.7240    0.2350   -1.5420 Ca        1 MOL      1.751994
    184 O25        -0.4520    0.5170   -3.8710 oh        1 MOL     -0.814346
    185 H90        -0.4900   -0.0960   -4.5970 ho        1 MOL      0.399358
    186 H91        -0.1070    1.3280   -4.2620 ho        1 MOL      0.399358
    187 O26        -1.5920   -1.9640   -3.5350 oh        1 MOL     -0.814346
    188 H92        -2.3370   -1.7050   -4.0820 ho        1 MOL      0.399358
    189 H93        -1.0070   -2.4130   -4.1300 ho        1 MOL      0.399358
@<TRIPOS>BOND
     1    1    2 1   
     2    1    4 1   
     3    1    5 1   
     4    1    6 1   
     5    2    3 2   
     6    2    7 1   
     7    7    8 1   
     8    7   15 1   
     9    8    9 1   
    10    8   11 1   
    11    8   16 1   
    12    9   10 2   
    13    9   19 1   
    14   11   12 1   
    15   11   17 1   
    16   11   18 1   
    17   12   13 1   
    18   12   14 1   
    19   19   20 1   
    20   19   28 1   
    21   20   21 1   
    22   20   23 1   
    23   20   29 1   
    24   21   22 2   
    25   21   41 1   
    26   23   24 1   
    27   23   30 1   
    28   23   31 1   
    29   24   25 1   
    30   24   32 1   
    31   24   33 1   
    32   25   26 1   
    33   25   34 1   
    34   25   35 1   
    35   26   27 1   
    36   26   36 1   
    37   26   37 1   
    38   27   38 1   
    39   27   39 1   
    40   27   40 1   
    41   41   42 1   
    42   41   49 1   
    43   42   43 1   
    44   42   45 1   
    45   42   50 1   
    46   43   44 2   
    47   43   53 1   
    48   45   46 1   
    49   45   51 1   
    50   45   52 1   
    51   46   47 1   
    52   46   48 1   
    53   53   54 1   
    54   53   57 1   
    55   54   55 1   
    56   54   58 1   
    57   54   59 1   
    58   55   56 2   
    59   55   60 1   
    60   60   61 1   
    61   60   68 1   
    62   61   62 1   
    63   61   64 1   
    64   61   69 1   
    65   62   63 2   
    66   62   72 1   
    67   64   65 1   
    68   64   70 1   
    69   64   71 1   
    70   65   66 1   
    71   65   67 1   
    72   72   73 1   
    73   72   76 1   
    74   73   74 1   
    75   73   77 1   
    76   73   78 1   
    77   74   75 2   
    78   74   79 1   
    79   79   80 1   
    80   79   86 1   
    81   80   81 1   
    82   80   83 1   
    83   80   87 1   
    84   81   82 2   
    85   81   93 1   
    86   83   84 1   
    87   83   85 1   
    88   83   88 1   
    89   84   90 1   
    90   84   91 1   
    91   84   92 1   
    92   85   89 1   
    93   93   94 1   
    94   93  101 1   
    95   94   95 1   
    96   94   97 1   
    97   94  102 1   
    98   95   96 2   
    99   95  112 1   
   100   97   98 1   
   101   97   99 1   
   102   97  103 1   
   103   98  100 1   
   104   98  104 1   
   105   98  105 1   
   106   99  106 1   
   107   99  107 1   
   108   99  108 1   
   109  100  109 1   
   110  100  110 1   
   111  100  111 1   
   112  112  113 1   
   113  112  119 1   
   114  113  114 1   
   115  113  116 1   
   116  113  120 1   
   117  114  115 2   
   118  114  126 1   
   119  116  117 1   
   120  116  118 1   
   121  116  121 1   
   122  117  123 1   
   123  117  124 1   
   124  117  125 1   
   125  118  122 1   
   126  126  127 1   
   127  126  133 1   
   128  127  128 1   
   129  127  130 1   
   130  127  134 1   
   131  128  129 2   
   132  128  140 1   
   133  130  131 1   
   134  130  132 1   
   135  130  135 1   
   136  131  137 1   
   137  131  138 1   
   138  131  139 1   
   139  132  136 1   
   140  140  141 1   
   141  140  149 1   
   142  141  142 1   
   143  141  144 1   
   144  141  150 1   
   145  142  143 2   
   146  142  162 1   
   147  144  145 1   
   148  144  151 1   
   149  144  152 1   
   150  145  146 1   
   151  145  153 1   
   152  145  154 1   
   153  146  147 1   
   154  146  155 1   
   155  146  156 1   
   156  147  148 1   
   157  147  157 1   
   158  147  158 1   
   159  148  159 1   
   160  148  160 1   
   161  148  161 1   
   162  162  163 1   
   163  162  171 1   
   164  163  164 1   
   165  163  166 1   
   166  163  172 1   
   167  164  165 2   
   168  164  177 1   
   169  166  167 1   
   170  166  173 1   
   171  166  174 1   
   172  167  168 1   
   173  167  175 1   
   174  167  176 1   
   175  168  169 1   
   176  168  170 1   
   177  177  178 1   
   178  177  182 1   
   179  178  179 1   
   180  178  180 1   
   181  178  181 1   
   182  184  185 1   
   183  184  186 1   
   184  187  188 1   
   185  187  189 1   
@<TRIPOS>SUBSTRUCTURE
     1 MOL         1 TEMP              0 ****  ****    0 ROOT
