@<TRIPOS>MOLECULE
MOL
  189   185     1     0     0
SMALL
resp


@<TRIPOS>ATOM
      1 C1          0.2070    4.2730   -5.1810 c3        1 MOL     -0.217973
      2 C2          0.5310    3.6890   -3.7580 c         1 MOL      0.520704
      3 O1         -0.3630    3.6690   -2.9970 o         1 MOL     -0.560730
      4 H1         -0.1450    5.3010   -5.0800 hc        1 MOL      0.066107
      5 H2          1.1070    4.2580   -5.7950 hc        1 MOL      0.066107
      6 H3         -0.5670    3.6700   -5.6540 hc        1 MOL      0.066107
      7 N1          1.6890    3.1640   -3.4280 n         1 MOL     -0.525338
      8 C3          2.0530    2.5060   -2.1940 c3        1 MOL      0.088918
      9 C4          2.2300    3.4700   -0.9710 c         1 MOL      0.419770
     10 O2          3.3180    3.9830   -0.6580 o         1 MOL     -0.517823
     11 C5          3.1610    1.5320   -2.4780 c3        1 MOL     -0.085053
     12 C6          3.6030    0.6820   -1.3460 c         1 MOL      0.690733
     13 O3          2.9940    0.7080   -0.2610 o         1 MOL     -0.695768
     14 O4          4.6240   -0.0180   -1.5020 o         1 MOL     -0.695768
     15 H4          2.4160    3.2910   -4.1190 hn        1 MOL      0.322944
     16 H5          1.2110    1.8800   -1.9000 h1        1 MOL      0.036728
     17 H6          4.0120    2.1160   -2.8380 hc        1 MOL      0.032606
     18 H7          2.8900    0.9330   -3.3570 hc        1 MOL      0.032606
     19 N2          1.1230    3.7860   -0.2690 n         1 MOL     -0.130048
     20 C7          1.1210    4.9190    0.6930 c3        1 MOL     -0.120850
     21 C8          2.1360    4.7270    1.7860 c         1 MOL      0.491120
     22 O5          2.5390    5.7600    2.3490 o         1 MOL     -0.565648
     23 C9         -0.2780    5.1010    1.3340 c3        1 MOL     -0.292399
     24 C10        -1.4510    5.4040    0.4180 c3        1 MOL     -0.187824
     25 C11        -1.3970    6.6210   -0.6030 c3        1 MOL     -0.040005
     26 C12        -0.4750    6.5200   -1.7340 c3        1 MOL      0.164711
     27 N3         -0.3220    7.8960   -2.3110 n4        1 MOL     -0.416325
     28 H8          0.2470    3.3640   -0.5240 hn        1 MOL      0.294426
     29 H9          1.4340    5.7960    0.1240 h1        1 MOL      0.090249
     30 H10        -0.1840    5.9490    2.0100 hc        1 MOL      0.136507
     31 H11        -0.5070    4.2640    2.0090 hc        1 MOL      0.136507
     32 H12        -2.3480    5.5740    1.0100 hc        1 MOL      0.126841
     33 H13        -1.5170    4.4500   -0.1020 hc        1 MOL      0.126841
     34 H14        -1.0950    7.5300   -0.0640 hc        1 MOL      0.032834
     35 H15        -2.4040    6.7040   -1.0050 hc        1 MOL      0.032834
     36 H16        -0.9040    5.8730   -2.4990 hx        1 MOL      0.071951
     37 H17         0.4840    6.1220   -1.4390 hx        1 MOL      0.071951
     38 H18         0.2930    8.3960   -1.6730 hn        1 MOL      0.322470
     39 H19         0.1700    7.9430   -3.1990 hn        1 MOL      0.322470
     40 H20        -1.1910    8.4160   -2.3020 hn        1 MOL      0.322470
     41 N4          2.6900    3.4880    2.0830 n         1 MOL     -0.136056
     42 C13         3.6210    3.2710    3.2100 c3        1 MOL      0.022805
     43 C14         4.9950    2.8200    2.7390 c         1 MOL      0.309865
     44 O6          5.9740    2.7990    3.4590 o         1 MOL     -0.501935
     45 C15         3.1620    2.4030    4.3890 c3        1 MOL     -0.208494
     46 C16         2.9710    0.8830    4.1580 c         1 MOL      0.796241
     47 O7          2.5590    0.3100    5.2280 o         1 MOL     -0.696032
     48 O8          3.1270    0.3050    3.0620 o         1 MOL     -0.696032
     49 H21         2.4410    2.6700    1.5420 hn        1 MOL      0.013881
     50 H22         3.7120    4.2560    3.6800 h1        1 MOL      0.100013
     51 H23         2.2620    2.8670    4.7980 hc        1 MOL      0.061664
     52 H24         3.8980    2.5480    5.1770 hc        1 MOL      0.061664
     53 N5          5.1110    2.3830    1.4850 n         1 MOL      0.018948
     54 C17         6.4010    2.1510    0.8560 c3        1 MOL     -0.466980
     55 C18         7.1010    0.7870    1.1520 c         1 MOL      0.647033
     56 O9          8.3100    0.6780    0.9180 o         1 MOL     -0.584668
     57 H25         4.2740    2.2590    0.9410 hn        1 MOL      0.148777
     58 H26         7.1540    2.8620    1.1670 h1        1 MOL      0.171312
     59 H27         6.1900    2.0820   -0.2180 h1        1 MOL      0.171312
     60 N6          6.3690   -0.2930    1.5530 n         1 MOL     -0.374371
     61 C19         6.9480   -1.6250    1.6850 c3        1 MOL      0.052368
     62 C20         7.1640   -2.5110    0.3950 c         1 MOL      0.315694
     63 O10         7.8960   -3.5560    0.5400 o         1 MOL     -0.498215
     64 C21         6.1750   -2.4940    2.6790 c3        1 MOL     -0.333072
     65 C22         4.6370   -2.4750    2.5110 c         1 MOL      0.750743
     66 O11         4.1510   -1.9430    1.4970 o         1 MOL     -0.677518
     67 O12         3.9170   -2.9230    3.4430 o         1 MOL     -0.677518
     68 H28         5.3800   -0.1530    1.6620 hn        1 MOL      0.288332
     69 H29         7.9500   -1.5220    2.0900 h1        1 MOL      0.103621
     70 H30         6.4540   -2.2110    3.6900 hc        1 MOL      0.108765
     71 H31         6.4600   -3.5450    2.5830 hc        1 MOL      0.108765
     72 N7          6.4530   -2.0860   -0.7390 n         1 MOL     -0.069662
     73 C23         6.5330   -2.7480   -1.9840 c3        1 MOL     -0.100751
     74 C24         5.3260   -3.6420   -2.2340 c         1 MOL      0.609255
     75 O13         5.5290   -4.5270   -3.1460 o         1 MOL     -0.616132
     76 H32         5.9210   -1.2280   -0.6750 hn        1 MOL      0.187330
     77 H33         7.5070   -3.2360   -1.9740 h1        1 MOL      0.058233
     78 H34         6.5340   -1.9130   -2.6960 h1        1 MOL      0.058233
     79 N8          4.1900   -3.4820   -1.6140 n         1 MOL     -0.299349
     80 C25         2.9560   -4.1680   -1.8340 c3        1 MOL     -0.269657
     81 C26         1.8280   -3.2270   -1.7460 c         1 MOL      0.855035
     82 O14         1.8070   -2.4080   -0.8590 o         1 MOL     -0.709886
     83 C27         2.7950   -5.3370   -0.9140 c3        1 MOL      0.494547
     84 C28         3.4280   -6.7090   -1.4650 c3        1 MOL     -0.532409
     85 O15         3.3620   -5.1100    0.3720 oh        1 MOL     -0.594078
     86 H35         4.2870   -2.9570   -0.7500 hn        1 MOL      0.225060
     87 H36         3.0350   -4.5810   -2.8470 h1        1 MOL      0.097239
     88 H37         1.7250   -5.4680   -0.7640 h1        1 MOL     -0.053248
     89 H38         3.0010   -4.3150    0.7660 ho        1 MOL      0.372685
     90 H39         4.5180   -6.6410   -1.4530 hc        1 MOL      0.148395
     91 H40         3.2810   -7.5460   -0.7810 hc        1 MOL      0.148395
     92 H41         2.8570   -6.9490   -2.3580 hc        1 MOL      0.148395
     93 N9          0.8830   -3.2090   -2.7180 n         1 MOL     -0.716047
     94 C29        -0.1900   -2.2980   -2.7980 c3        1 MOL      0.211092
     95 C30        -1.4370   -2.9490   -2.2210 c         1 MOL      0.470413
     96 O16        -1.8400   -4.0560   -2.6290 o         1 MOL     -0.549843
     97 C31        -0.3690   -1.5520   -4.1300 c3        1 MOL      0.041904
     98 C32         0.8690   -1.5960   -5.1250 c3        1 MOL      0.257811
     99 C33        -0.7380   -0.0230   -3.8560 c3        1 MOL     -0.509041
    100 C34         0.4730   -1.1670   -6.5720 c3        1 MOL     -0.408293
    101 H42         1.1060   -3.7530   -3.5360 hn        1 MOL      0.325976
    102 H43         0.0280   -1.4880   -2.0930 h1        1 MOL      0.067251
    103 H44        -1.2110   -2.0150   -4.6190 hc        1 MOL     -0.006387
    104 H45         1.2590   -2.6040   -5.2370 hc        1 MOL     -0.031385
    105 H46         1.6950   -1.0450   -4.6750 hc        1 MOL     -0.031385
    106 H47        -1.0460    0.4000   -4.8200 hc        1 MOL      0.149371
    107 H48        -1.5650   -0.0820   -3.1570 hc        1 MOL      0.149371
    108 H49         0.1850    0.4260   -3.4990 hc        1 MOL      0.149371
    109 H50         0.1700   -0.1310   -6.6420 hc        1 MOL      0.098991
    110 H51         1.4050   -1.1750   -7.1390 hc        1 MOL      0.098991
    111 H52        -0.2360   -1.9140   -6.9480 hc        1 MOL      0.098991
    112 N10        -2.1500   -2.2640   -1.2550 n         1 MOL     -0.197218
    113 C35        -3.2540   -2.8470   -0.4630 c3        1 MOL      0.014051
    114 C36        -4.5440   -2.2860   -1.0150 c         1 MOL      0.322196
    115 O17        -4.5480   -1.2960   -1.6940 o         1 MOL     -0.336645
    116 C37        -3.1000   -2.6650    1.0830 c3        1 MOL      0.119321
    117 C38        -1.7290   -2.9020    1.7180 c3        1 MOL     -0.325927
    118 O18        -3.4330   -1.3000    1.3310 oh        1 MOL     -0.400602
    119 H53        -1.8210   -1.3550   -0.9470 hn        1 MOL      0.155793
    120 H54        -3.3090   -3.9350   -0.5210 h1        1 MOL      0.070862
    121 H55        -3.8260   -3.3580    1.5170 h1        1 MOL      0.000964
    122 H56        -3.5040   -1.2130    2.2850 ho        1 MOL      0.351970
    123 H57        -1.0710   -2.1820    1.2410 hc        1 MOL      0.112345
    124 H58        -1.8230   -2.8620    2.8060 hc        1 MOL      0.112345
    125 H59        -1.3610   -3.9160    1.5510 hc        1 MOL      0.112345
    126 N11        -5.7350   -2.8690   -0.6330 n         1 MOL     -0.237312
    127 C39        -7.0600   -2.3330   -0.9530 c3        1 MOL     -0.256560
    128 C40        -7.3260   -0.9430   -0.4140 c         1 MOL      0.277102
    129 O19        -8.0180   -0.2020   -1.0880 o         1 MOL     -0.463680
    130 C41        -8.2580   -3.2710   -0.5100 c3        1 MOL      0.414654
    131 C42        -8.4350   -4.5720   -1.2140 c3        1 MOL     -0.543942
    132 O20        -7.9220   -3.5280    0.8490 oh        1 MOL     -0.632966
    133 H60        -5.5730   -3.7440   -0.1510 hn        1 MOL      0.269195
    134 H61        -7.1420   -2.3410   -2.0330 h1        1 MOL      0.174060
    135 H62        -9.2150   -2.7530   -0.5000 h1        1 MOL      0.050064
    136 H63        -8.5580   -3.0430    1.3750 ho        1 MOL      0.329268
    137 H64        -9.3710   -5.0040   -0.8660 hc        1 MOL      0.161437
    138 H65        -8.4580   -4.5100   -2.3110 hc        1 MOL      0.161437
    139 H66        -7.5750   -5.1950   -0.9550 hc        1 MOL      0.161437
    140 N12        -6.6970   -0.5200    0.7000 n         1 MOL     -0.035389
    141 C43        -6.7590    0.8020    1.3410 c3        1 MOL     -0.055555
    142 C44        -5.9140    1.8130    0.5540 c         1 MOL      0.368690
    143 O21        -6.2000    3.0390    0.5050 o         1 MOL     -0.513495
    144 C45        -6.5220    0.7890    2.8870 c3        1 MOL     -0.156146
    145 C46        -7.6400    0.1510    3.6940 c3        1 MOL      0.238627
    146 C47        -7.4210   -0.3640    5.1080 c3        1 MOL     -0.192361
    147 C48        -8.5440   -1.1830    5.7070 c3        1 MOL     -0.186894
    148 N13        -8.8460   -2.4320    4.9140 n4        1 MOL     -0.183099
    149 H67        -6.0220   -1.1440    1.1280 hn        1 MOL      0.097750
    150 H68        -7.7080    1.2990    1.1510 h1        1 MOL      0.104778
    151 H69        -6.3640    1.7940    3.2840 hc        1 MOL      0.061849
    152 H70        -5.6260    0.2260    3.1230 hc        1 MOL      0.061849
    153 H71        -7.8860   -0.7430    3.1230 hc        1 MOL     -0.037045
    154 H72        -8.5540    0.7420    3.5750 hc        1 MOL     -0.037045
    155 H73        -7.2200    0.4430    5.8130 hc        1 MOL      0.096100
    156 H74        -6.5240   -0.9600    5.2510 hc        1 MOL      0.096100
    157 H75        -9.4960   -0.6540    5.6970 hx        1 MOL      0.162780
    158 H76        -8.2070   -1.4800    6.6960 hx        1 MOL      0.162780
    159 H77        -7.9920   -2.9590    4.8060 hn        1 MOL      0.249246
    160 H78        -9.3310   -3.1680    5.4210 hn        1 MOL      0.249246
    161 H79        -9.2660   -2.2400    4.0170 hn        1 MOL      0.249246
    162 N14        -4.8550    1.3290   -0.0720 n         1 MOL     -0.067842
    163 C49        -3.7930    2.2830   -0.6190 c3        1 MOL     -0.019278
    164 C50        -4.2120    2.5880   -2.1000 c         1 MOL      0.399917
    165 O22        -4.2200    3.7390   -2.5320 o         1 MOL     -0.531982
    166 C51        -2.4620    1.6060   -0.6010 c3        1 MOL      0.093509
    167 C52        -1.8040    1.5510    0.7700 c3        1 MOL      0.061213
    168 C53        -0.4840    0.7830    0.6710 c         1 MOL      0.594325
    169 O23         0.4530    1.1860    1.4120 o         1 MOL     -0.715904
    170 O24        -0.3070   -0.2720    0.0250 o         1 MOL     -0.715904
    171 H80        -4.7280    0.3330   -0.0670 hn        1 MOL      0.044074
    172 H81        -3.6810    3.2840   -0.1930 h1        1 MOL      0.059819
    173 H82        -1.7570    2.2330   -1.1410 hc        1 MOL     -0.045397
    174 H83        -2.5130    0.5940   -1.0250 hc        1 MOL     -0.045397
    175 H84        -2.4980    1.0820    1.4660 hc        1 MOL     -0.057918
    176 H85        -1.5640    2.5640    1.1020 hc        1 MOL     -0.057918
    177 N15        -4.7030    1.5240   -2.7200 n         1 MOL     -0.096822
    178 C54        -5.3790    1.6440   -4.0510 c3        1 MOL     -0.339816
    179 H86        -5.5900    2.6940   -4.2570 h1        1 MOL      0.130153
    180 H87        -4.7250    1.2470   -4.8280 h1        1 MOL      0.130153
    181 H88        -6.3120    1.0810   -4.0370 h1        1 MOL      0.130153
    182 H89        -4.5870    0.6480   -2.2340 hn        1 MOL      0.172831
    183 Ca1         1.8190   -1.0390    1.3020 Ca        1 MOL      1.859105
    184 O25         0.9450   -1.3900    3.9040 oh        1 MOL     -0.955685
    185 H90         1.6090   -0.8840    4.3660 ho        1 MOL      0.422660
    186 H91         0.5390   -1.9270    4.5880 ho        1 MOL      0.422660
    187 O26         1.5740   -3.4660    2.2900 oh        1 MOL     -0.955685
    188 H92         2.3800   -3.5830    2.8040 ho        1 MOL      0.422660
    189 H93         0.8740   -3.7020    2.9000 ho        1 MOL      0.422660
@<TRIPOS>BOND
     1    1    2 1   
     2    1    4 1   
     3    1    5 1   
     4    1    6 1   
     5    2    3 2   
     6    2    7 1   
     7    7    8 1   
     8    7   15 1   
     9    8    9 1   
    10    8   11 1   
    11    8   16 1   
    12    9   10 2   
    13    9   19 1   
    14   11   12 1   
    15   11   17 1   
    16   11   18 1   
    17   12   13 1   
    18   12   14 1   
    19   19   20 1   
    20   19   28 1   
    21   20   21 1   
    22   20   23 1   
    23   20   29 1   
    24   21   22 2   
    25   21   41 1   
    26   23   24 1   
    27   23   30 1   
    28   23   31 1   
    29   24   25 1   
    30   24   32 1   
    31   24   33 1   
    32   25   26 1   
    33   25   34 1   
    34   25   35 1   
    35   26   27 1   
    36   26   36 1   
    37   26   37 1   
    38   27   38 1   
    39   27   39 1   
    40   27   40 1   
    41   41   42 1   
    42   41   49 1   
    43   42   43 1   
    44   42   45 1   
    45   42   50 1   
    46   43   44 2   
    47   43   53 1   
    48   45   46 1   
    49   45   51 1   
    50   45   52 1   
    51   46   47 1   
    52   46   48 1   
    53   53   54 1   
    54   53   57 1   
    55   54   55 1   
    56   54   58 1   
    57   54   59 1   
    58   55   56 2   
    59   55   60 1   
    60   60   61 1   
    61   60   68 1   
    62   61   62 1   
    63   61   64 1   
    64   61   69 1   
    65   62   63 2   
    66   62   72 1   
    67   64   65 1   
    68   64   70 1   
    69   64   71 1   
    70   65   66 1   
    71   65   67 1   
    72   72   73 1   
    73   72   76 1   
    74   73   74 1   
    75   73   77 1   
    76   73   78 1   
    77   74   75 2   
    78   74   79 1   
    79   79   80 1   
    80   79   86 1   
    81   80   81 1   
    82   80   83 1   
    83   80   87 1   
    84   81   82 2   
    85   81   93 1   
    86   83   84 1   
    87   83   85 1   
    88   83   88 1   
    89   84   90 1   
    90   84   91 1   
    91   84   92 1   
    92   85   89 1   
    93   93   94 1   
    94   93  101 1   
    95   94   95 1   
    96   94   97 1   
    97   94  102 1   
    98   95   96 2   
    99   95  112 1   
   100   97   98 1   
   101   97   99 1   
   102   97  103 1   
   103   98  100 1   
   104   98  104 1   
   105   98  105 1   
   106   99  106 1   
   107   99  107 1   
   108   99  108 1   
   109  100  109 1   
   110  100  110 1   
   111  100  111 1   
   112  112  113 1   
   113  112  119 1   
   114  113  114 1   
   115  113  116 1   
   116  113  120 1   
   117  114  115 2   
   118  114  126 1   
   119  116  117 1   
   120  116  118 1   
   121  116  121 1   
   122  117  123 1   
   123  117  124 1   
   124  117  125 1   
   125  118  122 1   
   126  126  127 1   
   127  126  133 1   
   128  127  128 1   
   129  127  130 1   
   130  127  134 1   
   131  128  129 2   
   132  128  140 1   
   133  130  131 1   
   134  130  132 1   
   135  130  135 1   
   136  131  137 1   
   137  131  138 1   
   138  131  139 1   
   139  132  136 1   
   140  140  141 1   
   141  140  149 1   
   142  141  142 1   
   143  141  144 1   
   144  141  150 1   
   145  142  143 2   
   146  142  162 1   
   147  144  145 1   
   148  144  151 1   
   149  144  152 1   
   150  145  146 1   
   151  145  153 1   
   152  145  154 1   
   153  146  147 1   
   154  146  155 1   
   155  146  156 1   
   156  147  148 1   
   157  147  157 1   
   158  147  158 1   
   159  148  159 1   
   160  148  160 1   
   161  148  161 1   
   162  162  163 1   
   163  162  171 1   
   164  163  164 1   
   165  163  166 1   
   166  163  172 1   
   167  164  165 2   
   168  164  177 1   
   169  166  167 1   
   170  166  173 1   
   171  166  174 1   
   172  167  168 1   
   173  167  175 1   
   174  167  176 1   
   175  168  169 1   
   176  168  170 1   
   177  177  178 1   
   178  177  182 1   
   179  178  179 1   
   180  178  180 1   
   181  178  181 1   
   182  184  185 1   
   183  184  186 1   
   184  187  188 1   
   185  187  189 1   
@<TRIPOS>SUBSTRUCTURE
     1 MOL         1 TEMP              0 ****  ****    0 ROOT
