@<TRIPOS>MOLECULE
MOL
  172   171     1     0     0
SMALL
resp


@<TRIPOS>ATOM
      1 C1          0.5420    3.9270    5.7170 c3        1 MOL     -0.458523
      2 C2         -0.0720    3.9400    4.3020 c         1 MOL      0.741549
      3 O1          0.6930    4.0970    3.3340 o         1 MOL     -0.575024
      4 H1         -0.1720    4.3450    6.4260 hc        1 MOL      0.114732
      5 H2          0.7790    2.9010    6.0010 hc        1 MOL      0.114732
      6 H3          1.4530    4.5250    5.7230 hc        1 MOL      0.114732
      7 N1         -1.3730    3.8960    4.0720 n         1 MOL     -0.619310
      8 C3         -1.9810    3.5670    2.7470 c3        1 MOL      0.275697
      9 C4         -2.0460    4.7600    1.7580 c         1 MOL      0.412111
     10 O2         -2.5460    5.8670    1.9820 o         1 MOL     -0.598226
     11 C5         -3.3820    2.9470    2.9540 c3        1 MOL     -0.348886
     12 C6         -4.0980    2.3940    1.6690 c         1 MOL      0.795796
     13 O3         -5.2850    2.2060    1.7790 o         1 MOL     -0.674149
     14 O4         -3.4260    2.1320    0.6140 o         1 MOL     -0.674149
     15 H4         -2.0530    4.0590    4.7970 hn        1 MOL      0.310128
     16 H5         -1.3390    2.7840    2.3390 h1        1 MOL      0.038748
     17 H6         -4.0110    3.6390    3.5160 hc        1 MOL      0.062124
     18 H7         -3.2450    2.1010    3.6280 hc        1 MOL      0.062124
     19 N2         -1.8020    4.4980    0.5030 n         1 MOL     -0.261726
     20 C7         -1.9360    5.4350   -0.5780 c3        1 MOL      0.343689
     21 C8         -2.6100    4.9870   -1.9170 c         1 MOL      0.535476
     22 O5         -2.3650    5.6230   -2.9310 o         1 MOL     -0.555509
     23 C9         -0.5820    6.0770   -0.7170 c3        1 MOL     -0.345520
     24 H8         -1.5700    3.5140    0.3530 hn        1 MOL      0.205045
     25 H9         -2.6670    6.2070   -0.3470 h1        1 MOL     -0.006509
     26 H10         0.1650    5.3130   -0.9240 hc        1 MOL      0.069712
     27 H11        -0.6800    6.9200   -1.4010 hc        1 MOL      0.069712
     28 H12        -0.2110    6.4840    0.2270 hc        1 MOL      0.069712
     29 N3         -3.5020    3.9300   -1.8190 n         1 MOL     -0.513217
     30 C10        -4.3860    3.4580   -2.9050 c3        1 MOL      0.169548
     31 C11        -5.7930    2.9580   -2.5150 c         1 MOL      0.416444
     32 O6         -6.6440    3.2220   -3.3950 o         1 MOL     -0.556455
     33 C12        -3.6310    2.4060   -3.6390 c3        1 MOL     -0.234089
     34 C13        -3.1010    1.3550   -2.7570 c         1 MOL      0.712018
     35 O7         -3.8970    0.7050   -2.0730 o         1 MOL     -0.677544
     36 O8         -1.8720    1.1550   -2.7250 o         1 MOL     -0.677544
     37 H13        -3.6380    3.5810   -0.8820 hn        1 MOL      0.210820
     38 H14        -4.6040    4.2470   -3.6220 h1        1 MOL      0.051445
     39 H15        -2.7260    2.8020   -4.1070 hc        1 MOL      0.060375
     40 H16        -4.2860    1.9370   -4.3700 hc        1 MOL      0.060375
     41 N4         -6.0400    2.3490   -1.3440 n         1 MOL     -0.198949
     42 C14        -7.3640    1.7670   -1.0300 c3        1 MOL     -0.141104
     43 C15        -7.5590    0.2970   -1.2550 c         1 MOL      0.502647
     44 O9         -8.6580   -0.2020   -1.2150 o         1 MOL     -0.590055
     45 H17        -5.3330    2.0890   -0.6630 hn        1 MOL      0.140650
     46 H18        -8.1710    2.3170   -1.5130 h1        1 MOL      0.099648
     47 H19        -7.6050    1.9760    0.0130 h1        1 MOL      0.099648
     48 N5         -6.4650   -0.4520   -1.5040 n         1 MOL     -0.147457
     49 C16        -6.4610   -1.8540   -1.9360 c3        1 MOL     -0.154082
     50 C17        -6.5930   -3.0360   -0.9080 c         1 MOL      0.414124
     51 O10        -6.5600   -4.2450   -1.2560 o         1 MOL     -0.540814
     52 C18        -5.3020   -2.0550   -2.8780 c3        1 MOL      0.034502
     53 C19        -3.8990   -2.1930   -2.2960 c         1 MOL      0.535441
     54 N6         -2.8810   -2.5910   -3.0270 n         1 MOL     -0.621311
     55 O11        -3.7100   -1.9310   -1.1290 o         1 MOL     -0.674933
     56 H20        -5.5520   -0.0350   -1.6200 hn        1 MOL      0.165971
     57 H21        -7.3770   -2.0020   -2.5060 h1        1 MOL      0.105939
     58 H22        -5.3110   -1.3010   -3.6560 hc        1 MOL      0.024052
     59 H23        -5.5090   -2.9100   -3.5200 hc        1 MOL      0.024052
     60 H24        -2.9570   -2.7950   -4.0170 hn        1 MOL      0.330186
     61 H25        -1.9460   -2.5010   -2.6520 hn        1 MOL      0.330186
     62 N7         -6.5450   -2.6310    0.2930 n         1 MOL     -0.126580
     63 C20        -6.5620   -3.4500    1.5280 c3        1 MOL     -0.282792
     64 C21        -5.1530   -4.1060    1.8230 c         1 MOL      0.503001
     65 O12        -5.1400   -4.9920    2.6580 o         1 MOL     -0.555905
     66 H26        -6.6410   -1.6340    0.4540 hn        1 MOL      0.190446
     67 H27        -7.3130   -4.2470    1.4780 h1        1 MOL      0.130043
     68 H28        -6.7900   -2.8140    2.3840 h1        1 MOL      0.130043
     69 N8         -4.0560   -3.6580    1.2660 n         1 MOL     -0.242017
     70 C22        -2.8140   -4.3310    1.5100 c3        1 MOL     -0.257682
     71 C23        -1.6590   -3.3650    1.4580 c         1 MOL      0.427301
     72 O13        -1.7860   -2.3270    0.9080 o         1 MOL     -0.390874
     73 C24        -2.4510   -5.4100    0.4050 c3        1 MOL      0.598462
     74 C25        -3.1160   -6.6900    0.7070 c3        1 MOL     -0.588568
     75 O14        -2.6640   -4.9210   -0.8460 oh        1 MOL     -0.542976
     76 H29        -4.1090   -2.9440    0.5590 hn        1 MOL      0.428461
     77 H30        -2.8080   -4.6970    2.5390 h1        1 MOL      0.125826
     78 H31        -1.3910   -5.6240    0.5400 h1        1 MOL     -0.043162
     79 H32        -2.9330   -4.0100   -0.7440 ho        1 MOL      0.247851
     80 H33        -3.0610   -6.9630    1.7550 hc        1 MOL      0.136783
     81 H34        -4.1900   -6.7020    0.4940 hc        1 MOL      0.136783
     82 H35        -2.6130   -7.3810    0.0300 hc        1 MOL      0.136783
     83 N9         -0.5270   -3.6060    2.1620 n         1 MOL     -0.329158
     84 C26         0.7230   -2.8990    1.9770 c3        1 MOL     -0.141598
     85 C27         1.5030   -3.1840    0.7050 c         1 MOL      0.576486
     86 O15         1.9630   -4.2810    0.6220 o         1 MOL     -0.575208
     87 C28         1.4980   -3.0680    3.2550 c3        1 MOL      0.222651
     88 C29         0.9390   -2.1060    4.3180 c3        1 MOL      0.117320
     89 C30         2.9620   -2.6680    3.1920 c3        1 MOL     -0.134481
     90 C31         1.5120   -2.2970    5.7840 c3        1 MOL     -0.062724
     91 H36        -0.5120   -4.3840    2.8060 hn        1 MOL      0.221434
     92 H37         0.4760   -1.8440    1.9350 h1        1 MOL      0.017675
     93 H38         1.4020   -4.0800    3.6400 hc        1 MOL     -0.018101
     94 H39        -0.1140   -2.3790    4.4680 hc        1 MOL     -0.046295
     95 H40         1.0040   -1.0560    4.0100 hc        1 MOL     -0.046295
     96 H41         3.2490   -1.6200    3.1490 hc        1 MOL      0.013528
     97 H42         3.3840   -3.1760    4.0520 hc        1 MOL      0.013528
     98 H43         3.4180   -3.3120    2.4370 hc        1 MOL      0.013528
     99 H44         2.5900   -2.1870    5.7660 hc        1 MOL     -0.003526
    100 H45         1.0770   -1.6110    6.5160 hc        1 MOL     -0.003526
    101 H46         1.2920   -3.3020    6.1300 hc        1 MOL     -0.003526
    102 N10         1.6950   -2.1230   -0.1220 n         1 MOL     -0.373271
    103 C32         2.5660   -2.1770   -1.2960 c3        1 MOL      0.041702
    104 C33         3.8920   -1.6610   -0.8870 c         1 MOL      0.661122
    105 O16         4.0740   -1.0560    0.1450 o         1 MOL     -0.473108
    106 C34         1.8450   -1.4110   -2.4510 c3        1 MOL     -0.184272
    107 C35         0.3480   -1.7780   -2.6350 c         1 MOL      0.659694
    108 O17        -0.4340   -1.3380   -1.7200 o         1 MOL     -0.644185
    109 O18        -0.0790   -2.3020   -3.6590 o         1 MOL     -0.644185
    110 H47         1.2680   -1.2500    0.1640 hn        1 MOL      0.238499
    111 H48         2.8320   -3.1780   -1.6310 h1        1 MOL      0.068703
    112 H49         2.4340   -1.5040   -3.3650 hc        1 MOL      0.053404
    113 H50         1.8420   -0.3500   -2.1900 hc        1 MOL      0.053404
    114 N11         4.8400   -1.8530   -1.8370 n         1 MOL     -0.865533
    115 C36         6.2520   -1.6620   -1.4120 c3        1 MOL      0.523525
    116 C37         6.6170   -0.2200   -0.8690 c         1 MOL      0.296070
    117 O19         7.3860   -0.1430    0.1260 o         1 MOL     -0.478514
    118 C38         7.1400   -2.0510   -2.5870 c3        1 MOL     -0.143033
    119 C39         8.5620   -1.6290   -2.6160 ca        1 MOL      0.123139
    120 C40         9.3560   -2.0970   -1.5310 ca        1 MOL     -0.197887
    121 C41         9.1860   -0.7960   -3.5820 ca        1 MOL     -0.197887
    122 C42        10.7180   -1.6900   -1.3800 ca        1 MOL     -0.105241
    123 C43        10.5310   -0.4280   -3.4860 ca        1 MOL     -0.105241
    124 C44        11.2540   -0.9100   -2.3940 ca        1 MOL     -0.108851
    125 H51         4.6260   -2.1090   -2.7990 hn        1 MOL      0.386625
    126 H52         6.5520   -2.3500   -0.6120 h1        1 MOL     -0.000806
    127 H53         6.6290   -1.6180   -3.4410 hc        1 MOL      0.027725
    128 H54         7.1370   -3.1280   -2.7770 hc        1 MOL      0.027725
    129 H55         8.9650   -2.6760   -0.7060 ha        1 MOL      0.121794
    130 H56         8.6120   -0.3980   -4.3940 ha        1 MOL      0.121794
    131 H57        11.3190   -1.8980   -0.5050 ha        1 MOL      0.119046
    132 H58        10.9760    0.2540   -4.1940 ha        1 MOL      0.119046
    133 H59        12.2720   -0.5550   -2.3420 ha        1 MOL      0.083307
    134 N12         6.1110    0.8340   -1.4770 n         1 MOL     -0.087793
    135 C45         6.3100    2.2490   -1.0700 c3        1 MOL      0.012526
    136 C46         5.7370    2.5160    0.3580 c         1 MOL      0.178991
    137 O20         6.2870    3.3610    1.0360 o         1 MOL     -0.493567
    138 C47         5.4780    3.1220   -2.0660 c3        1 MOL      0.072074
    139 C48         5.5440    2.2640   -3.3130 c3        1 MOL     -0.136370
    140 C49         5.3750    0.8590   -2.7060 c3        1 MOL      0.016357
    141 H60         7.3400    2.6030   -1.0920 h1        1 MOL      0.089343
    142 H61         4.4350    3.2160   -1.7640 hc        1 MOL      0.017975
    143 H62         5.9970    4.0690   -2.2350 hc        1 MOL      0.017975
    144 H63         4.7360    2.5140   -3.9960 hc        1 MOL      0.048867
    145 H64         6.5780    2.3260   -3.6380 hc        1 MOL      0.048867
    146 H65         4.3360    0.5880   -2.5090 h1        1 MOL      0.020322
    147 H66         5.8540    0.2360   -3.4630 h1        1 MOL      0.020322
    148 N13         4.7910    1.7520    0.8340 n         1 MOL      0.058085
    149 C50         4.1200    1.7270    2.1430 c3        1 MOL     -0.361314
    150 C51         4.8750    0.9280    3.0970 c         1 MOL      0.571625
    151 O21         5.0220    1.3150    4.2780 o         1 MOL     -0.577020
    152 C52         2.6220    1.3690    1.9440 c3        1 MOL     -0.021560
    153 C53         1.8490    2.0040    0.7620 c3        1 MOL     -0.218205
    154 C54         0.4290    1.5480    0.7040 c         1 MOL      0.667839
    155 O22         0.0640    0.5170    1.2670 o         1 MOL     -0.742077
    156 O23        -0.4060    2.0510   -0.0920 o         1 MOL     -0.742077
    157 H67         4.4230    1.0770    0.1810 hn        1 MOL      0.160366
    158 H68         4.1940    2.7870    2.3940 h1        1 MOL      0.166469
    159 H69         2.0930    1.7080    2.8390 hc        1 MOL      0.101935
    160 H70         2.5290    0.2820    1.8790 hc        1 MOL      0.101935
    161 H71         2.3650    1.6690   -0.1500 hc        1 MOL      0.101101
    162 H72         1.8180    3.0910    0.8590 hc        1 MOL      0.101101
    163 N14         5.5930   -0.1030    2.5570 n         1 MOL     -0.007388
    164 C55         6.6440   -0.8440    3.2680 c3        1 MOL     -0.208007
    165 H73         6.4880   -1.9150    3.1320 h1        1 MOL      0.072928
    166 H74         7.6190   -0.5660    2.8680 h1        1 MOL      0.072928
    167 H75         6.6040   -0.6030    4.3300 h1        1 MOL      0.072928
    168 H76         5.4790   -0.3080    1.5670 hn        1 MOL      0.031593
    169 Ca1        -2.0620    0.0140   -0.2280 Ca        1 MOL      1.692621
    170 O24        -3.8590   -0.5810    1.5480 oh        1 MOL     -0.947015
    171 H77        -4.7830   -0.3610    1.4380 ho        1 MOL      0.424635
    172 H78        -3.5820   -0.0760    2.3120 ho        1 MOL      0.424635
@<TRIPOS>BOND
     1    1    2 1   
     2    1    4 1   
     3    1    5 1   
     4    1    6 1   
     5    2    3 2   
     6    2    7 1   
     7    7    8 1   
     8    7   15 1   
     9    8    9 1   
    10    8   11 1   
    11    8   16 1   
    12    9   10 2   
    13    9   19 1   
    14   11   12 1   
    15   11   17 1   
    16   11   18 1   
    17   12   13 1   
    18   12   14 1   
    19   19   20 1   
    20   19   24 1   
    21   20   21 1   
    22   20   23 1   
    23   20   25 1   
    24   21   22 2   
    25   21   29 1   
    26   23   26 1   
    27   23   27 1   
    28   23   28 1   
    29   29   30 1   
    30   29   37 1   
    31   30   31 1   
    32   30   33 1   
    33   30   38 1   
    34   31   32 2   
    35   31   41 1   
    36   33   34 1   
    37   33   39 1   
    38   33   40 1   
    39   34   35 1   
    40   34   36 1   
    41   41   42 1   
    42   41   45 1   
    43   42   43 1   
    44   42   46 1   
    45   42   47 1   
    46   43   44 2   
    47   43   48 1   
    48   48   49 1   
    49   48   56 1   
    50   49   50 1   
    51   49   52 1   
    52   49   57 1   
    53   50   51 2   
    54   50   62 1   
    55   52   53 1   
    56   52   58 1   
    57   52   59 1   
    58   53   54 1   
    59   53   55 2   
    60   54   60 1   
    61   54   61 1   
    62   62   63 1   
    63   62   66 1   
    64   63   64 1   
    65   63   67 1   
    66   63   68 1   
    67   64   65 2   
    68   64   69 1   
    69   69   70 1   
    70   69   76 1   
    71   70   71 1   
    72   70   73 1   
    73   70   77 1   
    74   71   72 2   
    75   71   83 1   
    76   73   74 1   
    77   73   75 1   
    78   73   78 1   
    79   74   80 1   
    80   74   81 1   
    81   74   82 1   
    82   75   79 1   
    83   83   84 1   
    84   83   91 1   
    85   84   85 1   
    86   84   87 1   
    87   84   92 1   
    88   85   86 2   
    89   85  102 1   
    90   87   88 1   
    91   87   89 1   
    92   87   93 1   
    93   88   90 1   
    94   88   94 1   
    95   88   95 1   
    96   89   96 1   
    97   89   97 1   
    98   89   98 1   
    99   90   99 1   
   100   90  100 1   
   101   90  101 1   
   102  102  103 1   
   103  102  110 1   
   104  103  104 1   
   105  103  106 1   
   106  103  111 1   
   107  104  105 2   
   108  104  114 1   
   109  106  107 1   
   110  106  112 1   
   111  106  113 1   
   112  107  108 1   
   113  107  109 1   
   114  114  115 1   
   115  114  125 1   
   116  115  116 1   
   117  115  118 1   
   118  115  126 1   
   119  116  117 2   
   120  116  134 1   
   121  118  119 1   
   122  118  127 1   
   123  118  128 1   
   124  119  120 ar  
   125  119  121 ar  
   126  120  122 ar  
   127  120  129 1   
   128  121  123 ar  
   129  121  130 1   
   130  122  124 ar  
   131  122  131 1   
   132  123  124 ar  
   133  123  132 1   
   134  124  133 1   
   135  134  135 1   
   136  134  140 1   
   137  135  136 1   
   138  135  138 1   
   139  135  141 1   
   140  136  137 2   
   141  136  148 1   
   142  138  139 1   
   143  138  142 1   
   144  138  143 1   
   145  139  140 1   
   146  139  144 1   
   147  139  145 1   
   148  140  146 1   
   149  140  147 1   
   150  148  149 1   
   151  148  157 1   
   152  149  150 1   
   153  149  152 1   
   154  149  158 1   
   155  150  151 2   
   156  150  163 1   
   157  152  153 1   
   158  152  159 1   
   159  152  160 1   
   160  153  154 1   
   161  153  161 1   
   162  153  162 1   
   163  154  155 1   
   164  154  156 1   
   165  163  164 1   
   166  163  168 1   
   167  164  165 1   
   168  164  166 1   
   169  164  167 1   
   170  170  171 1   
   171  170  172 1   
@<TRIPOS>SUBSTRUCTURE
     1 MOL         1 TEMP              0 ****  ****    0 ROOT
