@<TRIPOS>MOLECULE
MOL
  176   174     1     0     0
SMALL
resp


@<TRIPOS>ATOM
      1 C1         -0.1100    5.1600    5.1490 c3        1 MOL     -0.325601
      2 C2         -0.0770    4.5190    3.7530 c         1 MOL      0.616255
      3 O1          0.9590    4.5960    3.0470 o         1 MOL     -0.523065
      4 H1         -0.6590    6.1010    5.1030 hc        1 MOL      0.086951
      5 H2         -0.6050    4.4860    5.8470 hc        1 MOL      0.086951
      6 H3          0.9090    5.3510    5.4860 hc        1 MOL      0.086951
      7 N1         -1.2320    3.8960    3.4070 n         1 MOL     -0.542075
      8 C3         -1.4580    3.3240    2.0800 c3        1 MOL      0.124322
      9 C4         -2.0880    4.4110    1.2090 c         1 MOL      0.408200
     10 O2         -3.2010    4.8110    1.4530 o         1 MOL     -0.517447
     11 C5         -2.1840    1.9990    2.1820 c3        1 MOL     -0.308584
     12 C6         -2.5420    1.3310    0.8500 c         1 MOL      0.786155
     13 O3         -2.3010    1.9410   -0.1760 o         1 MOL     -0.756581
     14 O4         -3.0550    0.2090    0.7830 o         1 MOL     -0.756581
     15 H4         -1.8900    3.5400    4.0770 hn        1 MOL      0.332896
     16 H5         -0.4620    3.0850    1.6910 h1        1 MOL      0.058049
     17 H6         -3.1000    2.1930    2.7360 hc        1 MOL      0.100143
     18 H7         -1.5000    1.3220    2.6980 hc        1 MOL      0.100143
     19 N2         -1.4660    4.9130    0.1110 n         1 MOL     -0.196779
     20 C7         -1.8270    6.0340   -0.7300 c3        1 MOL     -0.075324
     21 C8         -2.6290    5.7200   -1.9760 c         1 MOL      0.484846
     22 O5         -2.9740    6.6770   -2.6670 o         1 MOL     -0.540552
     23 C9         -0.4990    6.7150   -1.1680 c3        1 MOL     -0.047923
     24 C10         0.6840    7.0050   -0.2430 c3        1 MOL     -0.028605
     25 C11         0.2160    7.7260    1.0320 c3        1 MOL     -0.158280
     26 C12         1.3600    7.8900    2.0450 c3        1 MOL      0.176662
     27 N3          1.0640    8.8490    3.1070 n4        1 MOL     -0.415548
     28 H8         -0.5470    4.5060   -0.0060 hn        1 MOL      0.243742
     29 H9         -2.4390    6.7730   -0.2150 h1        1 MOL      0.101860
     30 H10        -0.8020    7.6280   -1.6700 hc        1 MOL      0.048269
     31 H11         0.0210    6.1070   -1.9190 hc        1 MOL      0.048269
     32 H12         1.3640    7.6300   -0.8090 hc        1 MOL      0.048590
     33 H13         1.1530    6.0730    0.0440 hc        1 MOL      0.048590
     34 H14        -0.5810    7.2420    1.5980 hc        1 MOL      0.059509
     35 H15        -0.2610    8.6870    0.8480 hc        1 MOL      0.059509
     36 H16         2.2740    8.2350    1.5690 hx        1 MOL      0.041517
     37 H17         1.5130    6.8890    2.4460 hx        1 MOL      0.041517
     38 H18         1.9060    9.0290    3.6360 hn        1 MOL      0.332464
     39 H19         0.7130    9.7460    2.8030 hn        1 MOL      0.332464
     40 H20         0.3470    8.4330    3.6830 hn        1 MOL      0.332464
     41 N4         -2.8870    4.4330   -2.2530 n         1 MOL     -0.298307
     42 C13        -3.9550    3.9660   -3.1020 c3        1 MOL      0.076178
     43 C14        -5.1600    3.5560   -2.1720 c         1 MOL      0.325295
     44 O6         -6.3250    3.3360   -2.6320 o         1 MOL     -0.561488
     45 C15        -3.5560    2.7320   -4.0240 c3        1 MOL     -0.297568
     46 C16        -2.9190    1.6000   -3.2730 c         1 MOL      0.755539
     47 O7         -1.7080    1.3450   -3.2250 o         1 MOL     -0.719706
     48 O8         -3.6920    0.8030   -2.7180 o         1 MOL     -0.719706
     49 H21        -2.4590    3.7910   -1.6030 hn        1 MOL      0.184762
     50 H22        -4.2760    4.7990   -3.7260 h1        1 MOL      0.104740
     51 H23        -2.9210    3.1600   -4.8010 hc        1 MOL      0.098274
     52 H24        -4.3870    2.3370   -4.5950 hc        1 MOL      0.098274
     53 N5         -4.8770    3.2550   -0.9650 n         1 MOL      0.065462
     54 C17        -5.7910    2.8270    0.1060 c3        1 MOL     -0.300035
     55 C18        -6.2540    1.3670    0.1130 c         1 MOL      0.565502
     56 O9         -7.1040    1.0130    0.9640 o         1 MOL     -0.603813
     57 H25        -3.9000    3.3020   -0.7170 hn        1 MOL      0.032582
     58 H26        -6.6970    3.4280    0.1380 h1        1 MOL      0.134919
     59 H27        -5.2870    2.9310    1.0680 h1        1 MOL      0.134919
     60 N6         -5.6940    0.5010   -0.7090 n         1 MOL     -0.127342
     61 C19        -6.3520   -0.8630   -0.9290 c3        1 MOL     -0.205932
     62 C20        -6.2370   -1.9530    0.1760 c         1 MOL      0.492087
     63 O10        -6.8170   -2.9880    0.0510 o         1 MOL     -0.509486
     64 C21        -5.9390   -1.4510   -2.2780 c3        1 MOL     -0.091222
     65 C22        -4.7290   -2.2710   -2.3780 c         1 MOL      0.613989
     66 N7         -4.6930   -3.0540   -3.4410 n         1 MOL     -0.704145
     67 O11        -3.8080   -2.1060   -1.5890 o         1 MOL     -0.572143
     68 H28        -4.8910    0.6710   -1.2970 hn        1 MOL      0.183115
     69 H29        -7.4260   -0.6990   -1.0590 h1        1 MOL      0.129687
     70 H30        -5.8910   -0.6640   -3.0260 hc        1 MOL      0.073864
     71 H31        -6.7520   -2.1020   -2.5990 hc        1 MOL      0.073864
     72 H32        -5.4130   -3.0500   -4.1460 hn        1 MOL      0.338776
     73 H33        -3.8210   -3.5540   -3.5790 hn        1 MOL      0.338776
     74 N8         -5.3630   -1.7350    1.1830 n         1 MOL     -0.187642
     75 C23        -5.2110   -2.5390    2.3690 c3        1 MOL     -0.306379
     76 C24        -3.9000   -3.3790    2.5670 c         1 MOL      0.520081
     77 O12        -3.6240   -3.8900    3.5970 o         1 MOL     -0.562375
     78 H34        -5.0350   -0.7880    1.2500 hn        1 MOL      0.257142
     79 H35        -5.9830   -3.3130    2.3620 h1        1 MOL      0.134850
     80 H36        -5.3240   -1.9950    3.3010 h1        1 MOL      0.134850
     81 N9         -3.1080   -3.4550    1.4810 n         1 MOL     -0.082612
     82 C25        -1.7290   -4.0200    1.4800 c3        1 MOL      0.105295
     83 C26        -0.6560   -2.9630    1.2250 c         1 MOL      0.497192
     84 O13        -0.9620   -2.0260    0.4550 o         1 MOL     -0.680409
     85 C27        -1.7620   -5.1400    0.4730 c3        1 MOL      0.164701
     86 C28        -2.7550   -6.2790    0.6230 ca        1 MOL     -0.147064
     87 C29        -4.0520   -6.2530    0.0440 ca        1 MOL     -0.080379
     88 C30        -2.4210   -7.3360    1.4890 ca        1 MOL     -0.080379
     89 C31        -4.8480   -7.3580    0.1880 ca        1 MOL     -0.244044
     90 C32        -3.2800   -8.4320    1.6540 ca        1 MOL     -0.244044
     91 C33        -4.5250   -8.5180    0.9050 ca        1 MOL      0.295307
     92 O14        -5.3990   -9.5490    1.0410 oh        1 MOL     -0.444543
     93 H37        -3.4120   -2.8140    0.7520 hn        1 MOL      0.123295
     94 H38        -1.4450   -4.5030    2.4250 h1        1 MOL      0.004982
     95 H39        -0.7280   -5.4800    0.4400 hc        1 MOL     -0.039246
     96 H40        -1.9660   -4.6760   -0.4850 hc        1 MOL     -0.039246
     97 H41        -4.4390   -5.3670   -0.4230 ha        1 MOL      0.107220
     98 H42        -1.4510   -7.3290    1.9810 ha        1 MOL      0.107220
     99 H43        -5.8420   -7.3010   -0.2290 ha        1 MOL      0.131950
    100 H44        -3.0320   -9.3070    2.2410 ha        1 MOL      0.131950
    101 H45        -4.9370  -10.3180    1.3820 ho        1 MOL      0.347038
    102 N10         0.5230   -3.1440    1.7920 n         1 MOL     -0.509248
    103 C34         1.7500   -2.3900    1.4930 c3        1 MOL      0.142149
    104 C35         2.9130   -3.3660    1.1310 c         1 MOL      0.487992
    105 O15         3.1840   -4.3750    1.7330 o         1 MOL     -0.544297
    106 C36         2.0940   -1.4450    2.6210 c3        1 MOL     -0.074412
    107 C37         1.2360   -0.1780    2.5890 c3        1 MOL      0.129352
    108 C38         3.5510   -1.0880    2.7730 c3        1 MOL      0.035438
    109 C39         1.3590    0.8110    3.7800 c3        1 MOL     -0.341456
    110 H46         0.6460   -3.9700    2.3710 hn        1 MOL      0.323602
    111 H47         1.5650   -1.7300    0.6390 h1        1 MOL      0.047723
    112 H48         1.8590   -2.0430    3.4940 hc        1 MOL      0.015169
    113 H49         0.1760   -0.4320    2.5480 hc        1 MOL      0.028821
    114 H50         1.4950    0.3580    1.6770 hc        1 MOL      0.028821
    115 H51         3.7760   -0.4260    3.6180 hc        1 MOL     -0.011165
    116 H52         4.2230   -1.9400    2.8840 hc        1 MOL     -0.011165
    117 H53         3.8780   -0.6600    1.8270 hc        1 MOL     -0.011165
    118 H54         0.7590    0.3630    4.5750 hc        1 MOL      0.087179
    119 H55         2.3750    1.1050    4.0500 hc        1 MOL      0.087179
    120 H56         0.9140    1.7490    3.4740 hc        1 MOL      0.087179
    121 N11         3.7830   -2.9790    0.1800 n         1 MOL     -0.123981
    122 C40         4.9690   -3.6530   -0.4390 c3        1 MOL     -0.036895
    123 C41         6.3030   -3.0010   -0.0900 c         1 MOL      0.506943
    124 O16         6.2070   -1.8480    0.4440 o         1 MOL     -0.408867
    125 C42         4.6820   -3.8010   -1.9110 c3        1 MOL     -0.012606
    126 O17         4.3220   -2.5080   -2.4930 oh        1 MOL     -0.552425
    127 H57         3.5230   -2.1280   -0.2990 hn        1 MOL      0.048689
    128 H58         4.9890   -4.6650   -0.0560 h1        1 MOL      0.089315
    129 H59         3.8180   -4.4550   -2.0450 h1        1 MOL      0.069946
    130 H60         5.4930   -4.2390   -2.4800 h1        1 MOL      0.069946
    131 H61         4.0650   -2.6130   -3.4130 ho        1 MOL      0.420550
    132 N12         7.4490   -3.4720   -0.3690 n         1 MOL     -0.497594
    133 C43         8.7400   -2.8000   -0.1910 c3        1 MOL      0.251566
    134 C44         8.7480   -1.3640   -0.6700 c         1 MOL      0.403848
    135 O18         9.1940   -0.4220    0.0320 o         1 MOL     -0.511369
    136 C45         9.8070   -3.6400   -0.7630 c3        1 MOL     -0.246191
    137 H62         7.4280   -4.2020   -1.0720 hn        1 MOL      0.292307
    138 H63         8.9290   -2.6490    0.8690 h1        1 MOL      0.058112
    139 H64        10.7510   -3.1210   -0.6270 hc        1 MOL      0.069306
    140 H65         9.8120   -4.6620   -0.3930 hc        1 MOL      0.069306
    141 H66         9.5920   -3.6690   -1.8320 hc        1 MOL      0.069306
    142 N13         8.2220   -1.1240   -1.8590 n         1 MOL     -0.311364
    143 C46         8.1850    0.1550   -2.5490 c3        1 MOL      0.092955
    144 C47         7.1940    1.2070   -1.8650 c         1 MOL      0.396250
    145 O19         7.5520    2.3430   -1.6010 o         1 MOL     -0.496855
    146 C48         7.8060   -0.0780   -3.9580 c3        1 MOL     -0.310492
    147 H67         7.7910   -1.9260   -2.2880 hn        1 MOL      0.254544
    148 H68         9.1670    0.6200   -2.5260 h1        1 MOL      0.096413
    149 H69         6.7580   -0.3810   -4.0540 hc        1 MOL      0.083153
    150 H70         7.7330    0.8750   -4.4800 hc        1 MOL      0.083153
    151 H71         8.4270   -0.8580   -4.4170 hc        1 MOL      0.083153
    152 N14         6.0450    0.6670   -1.3670 n         1 MOL     -0.079848
    153 C49         5.0540    1.3230   -0.6090 c3        1 MOL     -0.242308
    154 C50         5.5260    1.6020    0.8260 c         1 MOL      0.458076
    155 O20         5.1770    2.6060    1.4440 o         1 MOL     -0.555603
    156 C51         3.7140    0.5360   -0.5560 c3        1 MOL      0.170769
    157 C52         2.9750    0.5760   -1.8450 c3        1 MOL     -0.128993
    158 C53         1.4350    0.2180   -1.6930 c         1 MOL      0.681656
    159 O21         0.7490    0.7820   -0.8190 o         1 MOL     -0.714865
    160 O22         0.9140   -0.6270   -2.4060 o         1 MOL     -0.714865
    161 H72         5.9240   -0.3220   -1.5670 hn        1 MOL      0.077795
    162 H73         4.8570    2.2840   -1.0880 h1        1 MOL      0.136108
    163 H74         3.0360    0.9660    0.1740 hc        1 MOL      0.012871
    164 H75         3.8910   -0.4980   -0.2840 hc        1 MOL      0.012871
    165 H76         3.4740   -0.0840   -2.5500 hc        1 MOL      0.007953
    166 H77         3.1430    1.5620   -2.2950 hc        1 MOL      0.007953
    167 N15         6.3530    0.6910    1.4070 n         1 MOL     -0.004456
    168 C54         6.9350    0.9380    2.7100 c3        1 MOL     -0.234815
    169 H78         6.4730    1.8210    3.1520 h1        1 MOL      0.081999
    170 H79         6.7630    0.0770    3.3550 h1        1 MOL      0.081999
    171 H80         8.0070    1.1050    2.6030 h1        1 MOL      0.081999
    172 H81         6.5510   -0.2100    1.0020 hn        1 MOL      0.088996
    173 Ca1        -1.6260   -0.3790   -1.4060 Ca        1 MOL      1.765311
    174 O23        -1.3520   -2.3470   -3.1640 oh        1 MOL     -0.858076
    175 H82        -1.4860   -3.2510   -2.8900 ho        1 MOL      0.420445
    176 H83        -0.7730   -2.4100   -3.9310 ho        1 MOL      0.420445
@<TRIPOS>BOND
     1    1    2 1   
     2    1    4 1   
     3    1    5 1   
     4    1    6 1   
     5    2    3 2   
     6    2    7 1   
     7    7    8 1   
     8    7   15 1   
     9    8    9 1   
    10    8   11 1   
    11    8   16 1   
    12    9   10 2   
    13    9   19 1   
    14   11   12 1   
    15   11   17 1   
    16   11   18 1   
    17   12   13 1   
    18   12   14 1   
    19   19   20 1   
    20   19   28 1   
    21   20   21 1   
    22   20   23 1   
    23   20   29 1   
    24   21   22 2   
    25   21   41 1   
    26   23   24 1   
    27   23   30 1   
    28   23   31 1   
    29   24   25 1   
    30   24   32 1   
    31   24   33 1   
    32   25   26 1   
    33   25   34 1   
    34   25   35 1   
    35   26   27 1   
    36   26   36 1   
    37   26   37 1   
    38   27   38 1   
    39   27   39 1   
    40   27   40 1   
    41   41   42 1   
    42   41   49 1   
    43   42   43 1   
    44   42   45 1   
    45   42   50 1   
    46   43   44 2   
    47   43   53 1   
    48   45   46 1   
    49   45   51 1   
    50   45   52 1   
    51   46   47 1   
    52   46   48 1   
    53   53   54 1   
    54   53   57 1   
    55   54   55 1   
    56   54   58 1   
    57   54   59 1   
    58   55   56 2   
    59   55   60 1   
    60   60   61 1   
    61   60   68 1   
    62   61   62 1   
    63   61   64 1   
    64   61   69 1   
    65   62   63 2   
    66   62   74 1   
    67   64   65 1   
    68   64   70 1   
    69   64   71 1   
    70   65   66 1   
    71   65   67 2   
    72   66   72 1   
    73   66   73 1   
    74   74   75 1   
    75   74   78 1   
    76   75   76 1   
    77   75   79 1   
    78   75   80 1   
    79   76   77 2   
    80   76   81 1   
    81   81   82 1   
    82   81   93 1   
    83   82   83 1   
    84   82   85 1   
    85   82   94 1   
    86   83   84 2   
    87   83  102 1   
    88   85   86 1   
    89   85   95 1   
    90   85   96 1   
    91   86   87 ar  
    92   86   88 ar  
    93   87   89 ar  
    94   87   97 1   
    95   88   90 ar  
    96   88   98 1   
    97   89   91 ar  
    98   89   99 1   
    99   90   91 ar  
   100   90  100 1   
   101   91   92 1   
   102   92  101 1   
   103  102  103 1   
   104  102  110 1   
   105  103  104 1   
   106  103  106 1   
   107  103  111 1   
   108  104  105 2   
   109  104  121 1   
   110  106  107 1   
   111  106  108 1   
   112  106  112 1   
   113  107  109 1   
   114  107  113 1   
   115  107  114 1   
   116  108  115 1   
   117  108  116 1   
   118  108  117 1   
   119  109  118 1   
   120  109  119 1   
   121  109  120 1   
   122  121  122 1   
   123  121  127 1   
   124  122  123 1   
   125  122  125 1   
   126  122  128 1   
   127  123  124 2   
   128  123  132 1   
   129  125  126 1   
   130  125  129 1   
   131  125  130 1   
   132  126  131 1   
   133  132  133 1   
   134  132  137 1   
   135  133  134 1   
   136  133  136 1   
   137  133  138 1   
   138  134  135 2   
   139  134  142 1   
   140  136  139 1   
   141  136  140 1   
   142  136  141 1   
   143  142  143 1   
   144  142  147 1   
   145  143  144 1   
   146  143  146 1   
   147  143  148 1   
   148  144  145 2   
   149  144  152 1   
   150  146  149 1   
   151  146  150 1   
   152  146  151 1   
   153  152  153 1   
   154  152  161 1   
   155  153  154 1   
   156  153  156 1   
   157  153  162 1   
   158  154  155 2   
   159  154  167 1   
   160  156  157 1   
   161  156  163 1   
   162  156  164 1   
   163  157  158 1   
   164  157  165 1   
   165  157  166 1   
   166  158  159 1   
   167  158  160 1   
   168  167  168 1   
   169  167  172 1   
   170  168  169 1   
   171  168  170 1   
   172  168  171 1   
   173  174  175 1   
   174  174  176 1   
@<TRIPOS>SUBSTRUCTURE
     1 MOL         1 TEMP              0 ****  ****    0 ROOT
