@<TRIPOS>MOLECULE
MOL
  175   173     1     0     0
SMALL
resp


@<TRIPOS>ATOM
      1 C1          0.4940    3.7450    5.5200 c3        1 MOL     -0.356092
      2 C2         -0.1460    3.6420    4.1030 c         1 MOL      0.719506
      3 O1          0.5250    4.0480    3.1510 o         1 MOL     -0.535378
      4 H1         -0.2860    3.6640    6.2770 hc        1 MOL      0.084386
      5 H2          1.2140    2.9380    5.6530 hc        1 MOL      0.084386
      6 H3          1.0000    4.7050    5.6210 hc        1 MOL      0.084386
      7 N1         -1.3870    3.1160    3.9770 n         1 MOL     -0.644006
      8 C3         -2.1000    2.9610    2.7530 c3        1 MOL      0.134206
      9 C4         -2.2620    4.2710    2.0110 c         1 MOL      0.507512
     10 O2         -2.5280    5.3100    2.5760 o         1 MOL     -0.586099
     11 C5         -3.5480    2.4460    3.0010 c3        1 MOL     -0.161100
     12 C6         -4.2560    2.2170    1.6400 c         1 MOL      0.641424
     13 O3         -5.4400    2.5380    1.5400 o         1 MOL     -0.652031
     14 O4         -3.6210    1.7590    0.6850 o         1 MOL     -0.652031
     15 H4         -1.8820    2.9420    4.8300 hn        1 MOL      0.329488
     16 H5         -1.5250    2.2600    2.1470 h1        1 MOL      0.052010
     17 H6         -4.1540    3.1280    3.6040 hc        1 MOL      0.020893
     18 H7         -3.5220    1.4780    3.4900 hc        1 MOL      0.020893
     19 N2         -2.3080    4.3250    0.7050 n         1 MOL     -0.218861
     20 C7         -2.5760    5.4370   -0.1670 c3        1 MOL      0.155947
     21 C8         -3.2940    4.9420   -1.4770 c         1 MOL      0.599170
     22 O5         -3.2700    5.5760   -2.4900 o         1 MOL     -0.588923
     23 C9         -1.2520    6.2180   -0.3740 c3        1 MOL     -0.116790
     24 H8         -1.9670    3.4750    0.2660 hn        1 MOL      0.172850
     25 H9         -3.2920    6.1820    0.1930 h1        1 MOL      0.015008
     26 H10        -0.5110    5.4760   -0.6660 hc        1 MOL      0.019872
     27 H11        -1.3730    6.9160   -1.2050 hc        1 MOL      0.019872
     28 H12        -0.9220    6.6910    0.5500 hc        1 MOL      0.019872
     29 N3         -4.0300    3.8600   -1.4450 n         1 MOL     -0.447358
     30 C10        -4.8660    3.4260   -2.6240 c3        1 MOL      0.097279
     31 C11        -6.1490    2.6710   -2.2930 c         1 MOL      0.462356
     32 O6         -6.9440    2.5200   -3.2230 o         1 MOL     -0.565673
     33 C12        -4.0060    2.6550   -3.5680 c3        1 MOL     -0.109957
     34 C13        -3.3600    1.5230   -2.8860 c         1 MOL      0.730629
     35 O7         -3.9590    0.8520   -2.0330 o         1 MOL     -0.734677
     36 O8         -2.1590    1.2680   -3.1110 o         1 MOL     -0.734677
     37 H13        -4.0290    3.3690   -0.5590 hn        1 MOL      0.130099
     38 H14        -5.3040    4.2870   -3.1270 h1        1 MOL      0.058091
     39 H15        -3.2900    3.3400   -4.0210 hc        1 MOL      0.035874
     40 H16        -4.6590    2.3340   -4.3870 hc        1 MOL      0.035874
     41 N4         -6.3580    2.1750   -1.0600 n         1 MOL     -0.336213
     42 C14        -7.5660    1.4050   -0.6390 c3        1 MOL     -0.110096
     43 C15        -7.6330   -0.0910   -1.0600 c         1 MOL      0.436368
     44 O9         -8.7410   -0.6220   -0.9910 o         1 MOL     -0.586594
     45 H17        -5.6770    2.1880   -0.3160 hn        1 MOL      0.290388
     46 H18        -8.4590    1.9620   -0.9100 h1        1 MOL      0.097806
     47 H19        -7.5460    1.4350    0.4540 h1        1 MOL      0.097806
     48 N5         -6.5100   -0.7410   -1.4970 n         1 MOL     -0.036324
     49 C16        -6.4600   -2.1860   -1.8880 c3        1 MOL     -0.244100
     50 C17        -6.2530   -3.1720   -0.7210 c         1 MOL      0.563440
     51 O10        -5.9060   -4.2920   -0.9950 o         1 MOL     -0.516987
     52 C18        -5.3850   -2.3630   -2.9550 c3        1 MOL      0.057393
     53 C19        -3.9700   -2.2810   -2.4730 c         1 MOL      0.518191
     54 N6         -3.0600   -2.5310   -3.3340 n         1 MOL     -0.591354
     55 O11        -3.7140   -2.1430   -1.2900 o         1 MOL     -0.503603
     56 H20        -5.6190   -0.2800   -1.4090 hn        1 MOL      0.075639
     57 H21        -7.4200   -2.4980   -2.3250 h1        1 MOL      0.138453
     58 H22        -5.6030   -1.6500   -3.7510 hc        1 MOL      0.022393
     59 H23        -5.5010   -3.3500   -3.4180 hc        1 MOL      0.022393
     60 H24        -3.2770   -2.7130   -4.3040 hn        1 MOL      0.332064
     61 H25        -2.1240   -2.5620   -2.9610 hn        1 MOL      0.332064
     62 N7         -6.3550   -2.8140    0.5440 n         1 MOL     -0.412454
     63 C20        -6.2320   -3.6560    1.7680 c3        1 MOL     -0.060390
     64 C21        -4.8400   -4.2650    2.0610 c         1 MOL      0.394008
     65 O12        -4.7570   -5.2420    2.8360 o         1 MOL     -0.549572
     66 H26        -6.4380   -1.8200    0.7120 hn        1 MOL      0.298598
     67 H27        -7.0050   -4.4270    1.7520 h1        1 MOL      0.092083
     68 H28        -6.5170   -3.0230    2.6130 h1        1 MOL      0.092083
     69 N8         -3.7980   -3.8180    1.3580 n         1 MOL     -0.124639
     70 C22        -2.5030   -4.4150    1.1940 c3        1 MOL     -0.055190
     71 C23        -1.3750   -3.3190    1.1260 c         1 MOL      0.357523
     72 O13        -1.4220   -2.3070    0.3810 o         1 MOL     -0.477841
     73 C24        -2.4580   -5.3290   -0.0410 c3        1 MOL      0.502848
     74 C25        -3.5640   -6.4300    0.2320 c3        1 MOL     -0.515132
     75 O14        -2.7900   -4.7790   -1.3040 oh        1 MOL     -0.541845
     76 H29        -4.0460   -3.0210    0.7720 hn        1 MOL      0.086438
     77 H30        -2.3220   -5.0340    2.0730 h1        1 MOL      0.069076
     78 H31        -1.5340   -5.9050   -0.0560 h1        1 MOL     -0.049550
     79 H32        -2.8800   -3.8280   -1.1860 ho        1 MOL      0.253594
     80 H33        -3.4880   -7.1860   -0.5470 hc        1 MOL      0.127321
     81 H34        -3.4550   -6.8150    1.2490 hc        1 MOL      0.127321
     82 H35        -4.6050   -6.0910    0.1670 hc        1 MOL      0.127321
     83 N9         -0.2100   -3.6370    1.7110 n         1 MOL     -0.390067
     84 C26         0.9700   -2.7070    1.7390 c3        1 MOL     -0.067135
     85 C27         1.7870   -2.9240    0.4660 c         1 MOL      0.662996
     86 O15         2.3910   -3.9770    0.3400 o         1 MOL     -0.611688
     87 C28         1.8020   -2.9820    3.0520 c3        1 MOL      0.233727
     88 C29         1.0160   -2.7390    4.3160 c3        1 MOL      0.170341
     89 C30         3.1270   -2.2360    3.0900 c3        1 MOL     -0.210380
     90 C31         1.8130   -3.0250    5.5730 c3        1 MOL     -0.259259
     91 H36        -0.1140   -4.5910    2.0160 hn        1 MOL      0.260534
     92 H37         0.5290   -1.7090    1.8130 h1        1 MOL      0.049266
     93 H38         2.0490   -4.0460    3.0300 hc        1 MOL     -0.050832
     94 H39         0.0810   -3.3010    4.3070 hc        1 MOL     -0.059341
     95 H40         0.7290   -1.6940    4.2020 hc        1 MOL     -0.059341
     96 H41         2.8740   -1.1820    3.1970 hc        1 MOL      0.041978
     97 H42         3.7580   -2.6060    3.8960 hc        1 MOL      0.041978
     98 H43         3.6970   -2.4310    2.1820 hc        1 MOL      0.041978
     99 H44         2.1520   -4.0580    5.5360 hc        1 MOL      0.053129
    100 H45         2.6970   -2.3810    5.6090 hc        1 MOL      0.053129
    101 H46         1.1620   -3.0390    6.4430 hc        1 MOL      0.053129
    102 N10         1.8850   -1.9140   -0.3720 n         1 MOL     -0.350303
    103 C32         2.7420   -1.7810   -1.5030 c3        1 MOL      0.043197
    104 C33         4.1160   -1.3860   -0.9760 c         1 MOL      0.335274
    105 O16         4.2680   -0.7150    0.0300 o         1 MOL     -0.122126
    106 C34         2.1290   -0.7570   -2.4610 c3        1 MOL     -0.314929
    107 C35         0.6820   -1.0750   -2.9480 c         1 MOL      0.757200
    108 O17        -0.2880   -0.9870   -2.1780 o         1 MOL     -0.689975
    109 O18         0.5180   -1.4180   -4.1420 o         1 MOL     -0.689975
    110 H47         1.4210   -1.0370   -0.1660 hn        1 MOL      0.176330
    111 H48         2.7550   -2.7170   -2.0600 h1        1 MOL      0.090612
    112 H49         2.7650   -0.5660   -3.3300 hc        1 MOL      0.098173
    113 H50         2.0620    0.2440   -2.0380 hc        1 MOL      0.098173
    114 N11         5.1930   -1.7740   -1.7160 n         1 MOL     -0.613196
    115 C36         6.5520   -1.3940   -1.2570 c3        1 MOL      0.243179
    116 C37         6.8430    0.0840   -0.9320 c         1 MOL      0.271558
    117 O19         7.4000    0.4230    0.1070 o         1 MOL     -0.479395
    118 C38         7.5390   -1.8690   -2.3510 c3        1 MOL     -0.179537
    119 C39         9.0190   -1.8340   -2.0480 ca        1 MOL      0.041227
    120 C40         9.5370   -2.6780   -1.1030 ca        1 MOL     -0.116100
    121 C41         9.8430   -0.7700   -2.6080 ca        1 MOL     -0.116100
    122 C42        10.8940   -2.5520   -0.8010 ca        1 MOL     -0.139491
    123 C43        11.2320   -0.7460   -2.2960 ca        1 MOL     -0.139491
    124 C44        11.7780   -1.6200   -1.3360 ca        1 MOL     -0.094575
    125 H51         5.0710   -2.1850   -2.6210 hn        1 MOL      0.346607
    126 H52         6.7900   -1.8770   -0.3100 h1        1 MOL      0.091740
    127 H53         7.3290   -1.3200   -3.2730 hc        1 MOL      0.065776
    128 H54         7.2580   -2.8620   -2.7160 hc        1 MOL      0.065776
    129 H55         8.8760   -3.3520   -0.5840 ha        1 MOL      0.112058
    130 H56         9.4580    0.0010   -3.2590 ha        1 MOL      0.112058
    131 H57        11.3070   -3.1200    0.0170 ha        1 MOL      0.107161
    132 H58        11.7780    0.1080   -2.6510 ha        1 MOL      0.107161
    133 H59        12.7790   -1.4650   -0.9800 ha        1 MOL      0.112252
    134 N12         6.3510    1.0740   -1.6860 n         1 MOL      0.017405
    135 C45         6.4960    2.4540   -1.2960 c3        1 MOL     -0.035965
    136 C46         5.7500    2.8390   -0.0780 c         1 MOL      0.308259
    137 O20         6.0680    3.8620    0.5150 o         1 MOL     -0.537010
    138 C47         5.9310    3.2750   -2.4890 c3        1 MOL      0.068020
    139 C48         5.8570    2.3510   -3.6700 c3        1 MOL     -0.164237
    140 C49         5.8070    0.9890   -3.0430 c3        1 MOL      0.016334
    141 H60         7.5660    2.6500   -1.1820 h1        1 MOL      0.086683
    142 H61         5.0750    3.8980   -2.2530 hc        1 MOL      0.018121
    143 H62         6.6860    4.0260   -2.7350 hc        1 MOL      0.018121
    144 H63         4.9170    2.4390   -4.2000 hc        1 MOL      0.060024
    145 H64         6.7130    2.4740   -4.3240 hc        1 MOL      0.060024
    146 H65         4.7670    0.6710   -2.9660 h1        1 MOL      0.019375
    147 H66         6.3370    0.2260   -3.6210 h1        1 MOL      0.019375
    148 N13         4.8030    2.0660    0.4980 n         1 MOL      0.032403
    149 C50         4.1100    2.2180    1.7550 c3        1 MOL     -0.091156
    150 C51         4.7620    1.3910    2.9010 c         1 MOL      0.474151
    151 O21         4.6940    1.7300    4.0950 o         1 MOL     -0.572897
    152 C52         2.6150    1.8450    1.5420 c3        1 MOL      0.141846
    153 C53         1.7050    2.4760    0.4010 c3        1 MOL     -0.077371
    154 C54         0.4070    1.7800    0.2360 c         1 MOL      0.432170
    155 O22         0.1400    0.6670    0.7610 o         1 MOL     -0.618951
    156 O23        -0.5160    2.2340   -0.5240 o         1 MOL     -0.618951
    157 H67         4.6170    1.1650    0.0720 hn        1 MOL     -0.053493
    158 H68         4.1290    3.2570    2.0590 h1        1 MOL      0.085791
    159 H69         2.1110    2.2340    2.4200 hc        1 MOL     -0.035052
    160 H70         2.5540    0.7530    1.6140 hc        1 MOL     -0.035052
    161 H71         2.3570    2.3850   -0.4760 hc        1 MOL      0.059422
    162 H72         1.6120    3.5230    0.6610 hc        1 MOL      0.059422
    163 N14         5.4170    0.2730    2.5600 n         1 MOL      0.003379
    164 C55         6.4540   -0.4260    3.4080 c3        1 MOL     -0.239587
    165 H73         6.0670   -0.5580    4.4180 h1        1 MOL      0.090095
    166 H74         6.6790   -1.4010    2.9760 h1        1 MOL      0.090095
    167 H75         7.3620    0.1760    3.4430 h1        1 MOL      0.090095
    168 H76         5.3280   -0.0600    1.6040 hn        1 MOL     -0.029372
    169 Ca1        -2.1030    0.1150   -0.5660 Ca        1 MOL      1.713227
    170 O24        -4.1870   -1.0040    1.6340 oh        1 MOL     -0.751833
    171 H77        -3.2900   -0.8360    1.9230 ho        1 MOL      0.383876
    172 H78        -4.7380   -0.6890    2.3580 ho        1 MOL      0.383876
    173 O25        -1.7030   -0.3910    2.5550 oh        1 MOL     -0.751833
    174 H79        -0.9340    0.1000    2.2550 ho        1 MOL      0.383876
    175 H80        -1.5360   -0.5320    3.4900 ho        1 MOL      0.383876
@<TRIPOS>BOND
     1    1    2 1   
     2    1    4 1   
     3    1    5 1   
     4    1    6 1   
     5    2    3 2   
     6    2    7 1   
     7    7    8 1   
     8    7   15 1   
     9    8    9 1   
    10    8   11 1   
    11    8   16 1   
    12    9   10 2   
    13    9   19 1   
    14   11   12 1   
    15   11   17 1   
    16   11   18 1   
    17   12   13 1   
    18   12   14 1   
    19   19   20 1   
    20   19   24 1   
    21   20   21 1   
    22   20   23 1   
    23   20   25 1   
    24   21   22 2   
    25   21   29 1   
    26   23   26 1   
    27   23   27 1   
    28   23   28 1   
    29   29   30 1   
    30   29   37 1   
    31   30   31 1   
    32   30   33 1   
    33   30   38 1   
    34   31   32 2   
    35   31   41 1   
    36   33   34 1   
    37   33   39 1   
    38   33   40 1   
    39   34   35 1   
    40   34   36 1   
    41   41   42 1   
    42   41   45 1   
    43   42   43 1   
    44   42   46 1   
    45   42   47 1   
    46   43   44 2   
    47   43   48 1   
    48   48   49 1   
    49   48   56 1   
    50   49   50 1   
    51   49   52 1   
    52   49   57 1   
    53   50   51 2   
    54   50   62 1   
    55   52   53 1   
    56   52   58 1   
    57   52   59 1   
    58   53   54 1   
    59   53   55 2   
    60   54   60 1   
    61   54   61 1   
    62   62   63 1   
    63   62   66 1   
    64   63   64 1   
    65   63   67 1   
    66   63   68 1   
    67   64   65 2   
    68   64   69 1   
    69   69   70 1   
    70   69   76 1   
    71   70   71 1   
    72   70   73 1   
    73   70   77 1   
    74   71   72 2   
    75   71   83 1   
    76   73   74 1   
    77   73   75 1   
    78   73   78 1   
    79   74   80 1   
    80   74   81 1   
    81   74   82 1   
    82   75   79 1   
    83   83   84 1   
    84   83   91 1   
    85   84   85 1   
    86   84   87 1   
    87   84   92 1   
    88   85   86 2   
    89   85  102 1   
    90   87   88 1   
    91   87   89 1   
    92   87   93 1   
    93   88   90 1   
    94   88   94 1   
    95   88   95 1   
    96   89   96 1   
    97   89   97 1   
    98   89   98 1   
    99   90   99 1   
   100   90  100 1   
   101   90  101 1   
   102  102  103 1   
   103  102  110 1   
   104  103  104 1   
   105  103  106 1   
   106  103  111 1   
   107  104  105 2   
   108  104  114 1   
   109  106  107 1   
   110  106  112 1   
   111  106  113 1   
   112  107  108 1   
   113  107  109 1   
   114  114  115 1   
   115  114  125 1   
   116  115  116 1   
   117  115  118 1   
   118  115  126 1   
   119  116  117 2   
   120  116  134 1   
   121  118  119 1   
   122  118  127 1   
   123  118  128 1   
   124  119  120 ar  
   125  119  121 ar  
   126  120  122 ar  
   127  120  129 1   
   128  121  123 ar  
   129  121  130 1   
   130  122  124 ar  
   131  122  131 1   
   132  123  124 ar  
   133  123  132 1   
   134  124  133 1   
   135  134  135 1   
   136  134  140 1   
   137  135  136 1   
   138  135  138 1   
   139  135  141 1   
   140  136  137 2   
   141  136  148 1   
   142  138  139 1   
   143  138  142 1   
   144  138  143 1   
   145  139  140 1   
   146  139  144 1   
   147  139  145 1   
   148  140  146 1   
   149  140  147 1   
   150  148  149 1   
   151  148  157 1   
   152  149  150 1   
   153  149  152 1   
   154  149  158 1   
   155  150  151 2   
   156  150  163 1   
   157  152  153 1   
   158  152  159 1   
   159  152  160 1   
   160  153  154 1   
   161  153  161 1   
   162  153  162 1   
   163  154  155 1   
   164  154  156 1   
   165  163  164 1   
   166  163  168 1   
   167  164  165 1   
   168  164  166 1   
   169  164  167 1   
   170  170  171 1   
   171  170  172 1   
   172  173  174 1   
   173  173  175 1   
@<TRIPOS>SUBSTRUCTURE
     1 MOL         1 TEMP              0 ****  ****    0 ROOT
