@<TRIPOS>MOLECULE
MOL
  189   185     1     0     0
SMALL
resp


@<TRIPOS>ATOM
      1 C1         -0.3350    1.0860    6.1820 c3        1 MOL     -0.473317
      2 C2         -0.7230    1.1380    4.6670 c         1 MOL      0.763746
      3 O1          0.0030    1.7340    3.8180 o         1 MOL     -0.633075
      4 H1          0.1370    2.0250    6.4680 hc        1 MOL      0.124869
      5 H2         -1.2320    0.9320    6.7820 hc        1 MOL      0.124869
      6 H3          0.3610    0.2640    6.3510 hc        1 MOL      0.124869
      7 N1         -1.9950    0.6920    4.3640 n         1 MOL     -0.613875
      8 C3         -2.5510    0.8260    3.0220 c3        1 MOL      0.095912
      9 C4         -2.9450    2.3070    2.7690 c         1 MOL      0.507149
     10 O2         -3.7430    2.8930    3.5170 o         1 MOL     -0.553910
     11 C5         -3.7490   -0.0750    2.8210 c3        1 MOL     -0.046256
     12 C6         -4.4090    0.0960    1.4850 c         1 MOL      0.627523
     13 O3         -3.6670    0.1740    0.4810 o         1 MOL     -0.627345
     14 O4         -5.6370    0.3230    1.5190 o         1 MOL     -0.627345
     15 H4         -2.5610    0.2390    5.0680 hn        1 MOL      0.331738
     16 H5         -1.7810    0.5550    2.3080 h1        1 MOL      0.078908
     17 H6         -4.4700    0.1030    3.6170 hc        1 MOL      0.007686
     18 H7         -3.4960   -1.1340    2.8870 hc        1 MOL      0.007686
     19 N2         -2.3310    2.9330    1.7650 n         1 MOL     -0.113322
     20 C7         -2.2340    4.4390    1.4820 c3        1 MOL     -0.018362
     21 C8         -3.4800    4.8860    0.7020 c         1 MOL      0.434203
     22 O5         -4.1460    5.8840    1.0120 o         1 MOL     -0.577987
     23 C9         -1.0140    4.6860    0.6060 c3        1 MOL     -0.114719
     24 C10         0.2570    4.9770    1.4730 c3        1 MOL      0.001409
     25 C11         1.3660    5.4760    0.6220 c3        1 MOL     -0.231031
     26 C12         2.6950    5.8000    1.3890 c3        1 MOL      0.268797
     27 N3          3.5040    6.7480    0.6530 n4        1 MOL     -0.365155
     28 H8         -1.6070    2.3580    1.3410 hn        1 MOL      0.016528
     29 H9         -2.3460    5.0480    2.3880 h1        1 MOL      0.060476
     30 H10        -1.1830    5.4920   -0.1090 hc        1 MOL      0.081721
     31 H11        -0.8520    3.8000    0.0060 hc        1 MOL      0.081721
     32 H12         0.5300    4.0190    1.9120 hc        1 MOL      0.055266
     33 H13         0.1080    5.6620    2.3080 hc        1 MOL      0.055266
     34 H14         1.0910    6.3610    0.0510 hc        1 MOL      0.059400
     35 H15         1.5520    4.6320   -0.0380 hc        1 MOL      0.059400
     36 H16         3.2070    4.8470    1.5070 hx        1 MOL      0.018496
     37 H17         2.5780    6.2690    2.3730 hx        1 MOL      0.018496
     38 H18         4.2790    7.0840    1.2070 hn        1 MOL      0.313074
     39 H19         3.9930    6.3610   -0.1480 hn        1 MOL      0.313074
     40 H20         2.9700    7.5470    0.3590 hn        1 MOL      0.313074
     41 N4         -3.7800    4.1140   -0.2990 n         1 MOL     -0.113049
     42 C13        -4.6810    4.3400   -1.4530 c3        1 MOL      0.016118
     43 C14        -5.9670    3.4650   -1.4290 c         1 MOL      0.492240
     44 O6         -6.6470    3.4460   -2.4020 o         1 MOL     -0.512546
     45 C15        -3.8960    4.2300   -2.8070 c3        1 MOL     -0.159027
     46 C16        -2.9030    3.1290   -2.9160 c         1 MOL      0.850345
     47 O7         -2.0740    3.1460   -3.8910 o         1 MOL     -0.716276
     48 O8         -2.6900    2.3940   -1.9670 o         1 MOL     -0.716276
     49 H21        -3.2400    3.2640   -0.3730 hn        1 MOL     -0.003893
     50 H22        -5.0490    5.3560   -1.3380 h1        1 MOL      0.073155
     51 H23        -3.3610    5.1520   -3.0360 hc        1 MOL      0.033802
     52 H24        -4.5280    4.0160   -3.6660 hc        1 MOL      0.033802
     53 N5         -6.3460    2.8320   -0.3070 n         1 MOL     -0.373800
     54 C17        -7.6500    2.1240   -0.0430 c3        1 MOL     -0.079601
     55 C18        -7.9520    0.8550   -0.9410 c         1 MOL      0.501066
     56 O9         -9.1170    0.6380   -1.1930 o         1 MOL     -0.557852
     57 H25        -5.7250    3.0080    0.4670 hn        1 MOL      0.262335
     58 H26        -8.4970    2.8130   -0.1350 h1        1 MOL      0.092581
     59 H27        -7.6790    1.7530    0.9820 h1        1 MOL      0.092581
     60 N6         -6.8800    0.1130   -1.3310 n         1 MOL     -0.215386
     61 C19        -6.9560   -1.1890   -2.0980 c3        1 MOL     -0.008812
     62 C20        -6.8630   -2.3790   -1.2350 c         1 MOL      0.382179
     63 O10        -7.0050   -3.4970   -1.7450 o         1 MOL     -0.518299
     64 C21        -5.8900   -1.2050   -3.2260 c3        1 MOL     -0.208969
     65 C22        -4.4610   -0.9250   -2.7590 c         1 MOL      0.735256
     66 O11        -3.8170   -1.7380   -2.0500 o         1 MOL     -0.675282
     67 O12        -3.8890    0.0400   -3.2620 o         1 MOL     -0.675282
     68 H28        -6.0010    0.3560   -0.8910 hn        1 MOL      0.145431
     69 H29        -7.9680   -1.2590   -2.4880 h1        1 MOL      0.124470
     70 H30        -6.2800   -0.4140   -3.8680 hc        1 MOL      0.069024
     71 H31        -5.9610   -2.1670   -3.7520 hc        1 MOL      0.069024
     72 N7         -6.6350   -2.2120    0.0870 n         1 MOL     -0.161291
     73 C23        -6.5470   -3.2460    1.0910 c3        1 MOL     -0.208132
     74 C24        -5.3510   -4.1440    0.9740 c         1 MOL      0.527590
     75 O13        -5.2500   -5.2110    1.4990 o         1 MOL     -0.554108
     76 H32        -6.4770   -1.2990    0.4920 hn        1 MOL      0.179259
     77 H33        -7.4410   -3.8500    0.9190 h1        1 MOL      0.104705
     78 H34        -6.6270   -2.8380    2.0990 h1        1 MOL      0.104705
     79 N8         -4.3450   -3.6130    0.2390 n         1 MOL     -0.010909
     80 C25        -3.0310   -4.3710    0.0540 c3        1 MOL     -0.507394
     81 C26        -1.8180   -3.4560    0.2090 c         1 MOL      0.908859
     82 O14        -1.9040   -2.2670    0.0510 o         1 MOL     -0.760339
     83 C27        -2.8470   -5.0710   -1.3010 c3        1 MOL      0.578579
     84 C28        -3.9500   -6.0940   -1.5880 c3        1 MOL     -0.412692
     85 O15        -2.7750   -4.1530   -2.4080 oh        1 MOL     -0.661478
     86 H35        -4.5070   -2.6890   -0.1490 hn        1 MOL      0.078134
     87 H36        -2.9860   -5.1400    0.8220 h1        1 MOL      0.137416
     88 H37        -1.8910   -5.5800   -1.3080 h1        1 MOL     -0.023317
     89 H38        -3.2690   -3.3640   -2.1600 ho        1 MOL      0.412556
     90 H39        -3.5570   -6.6740   -2.4230 hc        1 MOL      0.098992
     91 H40        -4.0570   -6.6730   -0.6660 hc        1 MOL      0.098992
     92 H41        -4.8260   -5.5300   -1.9010 hc        1 MOL      0.098992
     93 N9         -0.6230   -4.0190    0.5590 n         1 MOL     -0.690190
     94 C29         0.5740   -3.3880    0.9160 c3        1 MOL      0.279895
     95 C30         1.6440   -3.6050   -0.1780 c         1 MOL      0.429983
     96 O16         1.9990   -4.7400   -0.5380 o         1 MOL     -0.541799
     97 C31         1.0480   -3.8160    2.3230 c3        1 MOL     -0.089750
     98 C32         0.1580   -3.1890    3.4350 c3        1 MOL      0.295431
     99 C33         2.5330   -3.5130    2.5920 c3        1 MOL     -0.075030
    100 C34         0.4720   -3.6440    4.8050 c3        1 MOL     -0.290260
    101 H42        -0.7210   -5.0240    0.5070 hn        1 MOL      0.283550
    102 H43         0.3010   -2.3290    0.9660 h1        1 MOL      0.077499
    103 H44         0.9650   -4.8970    2.4240 hc        1 MOL      0.036324
    104 H45        -0.8770   -3.4610    3.2410 hc        1 MOL     -0.061233
    105 H46         0.1130   -2.1050    3.3420 hc        1 MOL     -0.061233
    106 H47         3.1740   -4.0390    1.8740 hc        1 MOL      0.009622
    107 H48         2.7490   -2.4570    2.4910 hc        1 MOL      0.009622
    108 H49         2.8830   -3.8500    3.5710 hc        1 MOL      0.009622
    109 H50        -0.3170   -3.2590    5.4530 hc        1 MOL      0.060816
    110 H51         0.3390   -4.7270    4.8130 hc        1 MOL      0.060816
    111 H52         1.4270   -3.2580    5.1760 hc        1 MOL      0.060816
    112 N10         2.2210   -2.5040   -0.6660 n         1 MOL     -0.153360
    113 C35         3.5110   -2.5110   -1.4390 c3        1 MOL     -0.086867
    114 C36         4.8090   -2.4730   -0.5900 c         1 MOL      0.420018
    115 O17         4.7240   -2.1420    0.5990 o         1 MOL     -0.326491
    116 C37         3.5900   -1.3610   -2.4530 c3        1 MOL      0.370987
    117 C38         2.7160   -1.8630   -3.6090 c3        1 MOL     -0.430555
    118 O18         3.1390   -0.1210   -2.0130 oh        1 MOL     -0.615551
    119 H53         1.8720   -1.6010   -0.4160 hn        1 MOL      0.110313
    120 H54         3.6690   -3.4520   -1.9630 h1        1 MOL      0.070611
    121 H55         4.6270   -1.2450   -2.7700 h1        1 MOL     -0.009970
    122 H56         2.1760   -0.1750   -1.9080 ho        1 MOL      0.395230
    123 H57         1.7400   -2.1760   -3.2320 hc        1 MOL      0.111224
    124 H58         2.5910   -1.1080   -4.3870 hc        1 MOL      0.111224
    125 H59         3.1260   -2.7710   -4.0270 hc        1 MOL      0.111224
    126 N11         5.9740   -2.6290   -1.1910 n         1 MOL     -0.383935
    127 C39         7.3150   -2.3320   -0.5100 c3        1 MOL     -0.212587
    128 C40         7.4080   -0.8930    0.0400 c         1 MOL      0.491754
    129 O19         8.0660   -0.7190    1.0500 o         1 MOL     -0.493534
    130 C41         8.5350   -2.6250   -1.4720 c3        1 MOL      0.340510
    131 C42         8.6650   -4.1210   -1.8210 c3        1 MOL     -0.259692
    132 O20         8.3940   -1.7730   -2.5920 oh        1 MOL     -0.648001
    133 H60         6.0610   -2.8850   -2.1620 hn        1 MOL      0.310114
    134 H61         7.4210   -2.9860    0.3520 h1        1 MOL      0.166603
    135 H62         9.4360   -2.3850   -0.8990 h1        1 MOL      0.018570
    136 H63         9.2670   -1.8040   -2.9890 ho        1 MOL      0.406619
    137 H64         7.7640   -4.4460   -2.3570 hc        1 MOL      0.079006
    138 H65         9.5640   -4.2450   -2.4250 hc        1 MOL      0.079006
    139 H66         8.8590   -4.6780   -0.9040 hc        1 MOL      0.079006
    140 N12         6.7460    0.1070   -0.6030 n         1 MOL     -0.298991
    141 C43         6.6170    1.5360   -0.1600 c3        1 MOL     -0.136676
    142 C44         5.6900    1.7420    1.0370 c         1 MOL      0.502493
    143 O21         5.7980    2.7760    1.6820 o         1 MOL     -0.565488
    144 C45         6.0300    2.3280   -1.3250 c3        1 MOL     -0.095804
    145 C46         6.7490    2.2720   -2.6960 c3        1 MOL     -0.043512
    146 C47         8.2340    2.5090   -2.5990 c3        1 MOL      0.009996
    147 C48         8.9050    2.9310   -3.8880 c3        1 MOL      0.009407
    148 N13        10.3260    3.3190   -3.7470 n4        1 MOL     -0.220748
    149 H67         6.1880   -0.1640   -1.3990 hn        1 MOL      0.282226
    150 H68         7.5910    1.9970   -0.0210 h1        1 MOL      0.105902
    151 H69         5.8860    3.3790   -1.1040 hc        1 MOL      0.054613
    152 H70         4.9990    2.0050   -1.4200 hc        1 MOL      0.054613
    153 H71         6.3400    3.0780   -3.2870 hc        1 MOL      0.043265
    154 H72         6.4770    1.3730   -3.2620 hc        1 MOL      0.043265
    155 H73         8.7730    1.6670   -2.1600 hc        1 MOL      0.030337
    156 H74         8.2730    3.3190   -1.8610 hc        1 MOL      0.030337
    157 H75         8.3190    3.7360   -4.3310 hx        1 MOL      0.075196
    158 H76         8.8260    2.0660   -4.5550 hx        1 MOL      0.075196
    159 H77        10.8660    3.2670   -4.5960 hn        1 MOL      0.263205
    160 H78        10.3740    4.3040   -3.5270 hn        1 MOL      0.263205
    161 H79        10.8400    2.7970   -3.0660 hn        1 MOL      0.263205
    162 N14         4.7780    0.8020    1.3350 n         1 MOL     -0.041698
    163 C49         3.8270    0.7610    2.3820 c3        1 MOL     -0.228303
    164 C50         4.3360   -0.1770    3.5460 c         1 MOL      0.514802
    165 O22         3.9830    0.0140    4.7010 o         1 MOL     -0.519317
    166 C51         2.4860    0.2080    1.8280 c3        1 MOL      0.008259
    167 C52         1.8460    1.4030    0.9950 c3        1 MOL      0.220172
    168 C53         0.5840    0.8830    0.2260 c         1 MOL      0.370174
    169 O23         0.7200   -0.1180   -0.5160 o         1 MOL     -0.507783
    170 O24        -0.5470    1.3840    0.4370 o         1 MOL     -0.507783
    171 H80         4.6740    0.0490    0.6660 hn        1 MOL     -0.015330
    172 H81         3.7100    1.7880    2.7420 h1        1 MOL      0.116713
    173 H82         1.8000   -0.0880    2.6290 hc        1 MOL      0.056037
    174 H83         2.7270   -0.6650    1.2040 hc        1 MOL      0.056037
    175 H84         2.5540    1.7810    0.2560 hc        1 MOL     -0.032560
    176 H85         1.4670    2.1580    1.6820 hc        1 MOL     -0.032560
    177 N15         5.2070   -1.1890    3.2220 n         1 MOL     -0.232589
    178 C54         5.6940   -2.1950    4.1570 c3        1 MOL     -0.204798
    179 H86         5.9400   -1.7200    5.1060 h1        1 MOL      0.098716
    180 H87         4.9220   -2.9460    4.3180 h1        1 MOL      0.098716
    181 H88         6.5850   -2.6710    3.7470 h1        1 MOL      0.098716
    182 H89         5.3260   -1.2520    2.2290 hn        1 MOL      0.148719
    183 Ca1        -1.8980    0.0060   -1.3470 Ca        1 MOL      1.694700
    184 O25        -0.7840   -2.0130   -2.8930 oh        1 MOL     -0.906109
    185 H90        -0.4060   -1.8130   -3.7570 ho        1 MOL      0.408532
    186 H91        -1.3500   -2.7610   -3.0530 ho        1 MOL      0.408532
    187 O26        -0.5760    1.0580   -3.4780 oh        1 MOL     -0.906109
    188 H92         0.1600    1.0230   -4.0810 ho        1 MOL      0.408532
    189 H93        -1.1920    1.6700   -3.8820 ho        1 MOL      0.408532
@<TRIPOS>BOND
     1    1    2 1   
     2    1    4 1   
     3    1    5 1   
     4    1    6 1   
     5    2    3 2   
     6    2    7 1   
     7    7    8 1   
     8    7   15 1   
     9    8    9 1   
    10    8   11 1   
    11    8   16 1   
    12    9   10 2   
    13    9   19 1   
    14   11   12 1   
    15   11   17 1   
    16   11   18 1   
    17   12   13 1   
    18   12   14 1   
    19   19   20 1   
    20   19   28 1   
    21   20   21 1   
    22   20   23 1   
    23   20   29 1   
    24   21   22 2   
    25   21   41 1   
    26   23   24 1   
    27   23   30 1   
    28   23   31 1   
    29   24   25 1   
    30   24   32 1   
    31   24   33 1   
    32   25   26 1   
    33   25   34 1   
    34   25   35 1   
    35   26   27 1   
    36   26   36 1   
    37   26   37 1   
    38   27   38 1   
    39   27   39 1   
    40   27   40 1   
    41   41   42 1   
    42   41   49 1   
    43   42   43 1   
    44   42   45 1   
    45   42   50 1   
    46   43   44 2   
    47   43   53 1   
    48   45   46 1   
    49   45   51 1   
    50   45   52 1   
    51   46   47 1   
    52   46   48 1   
    53   53   54 1   
    54   53   57 1   
    55   54   55 1   
    56   54   58 1   
    57   54   59 1   
    58   55   56 2   
    59   55   60 1   
    60   60   61 1   
    61   60   68 1   
    62   61   62 1   
    63   61   64 1   
    64   61   69 1   
    65   62   63 2   
    66   62   72 1   
    67   64   65 1   
    68   64   70 1   
    69   64   71 1   
    70   65   66 1   
    71   65   67 1   
    72   72   73 1   
    73   72   76 1   
    74   73   74 1   
    75   73   77 1   
    76   73   78 1   
    77   74   75 2   
    78   74   79 1   
    79   79   80 1   
    80   79   86 1   
    81   80   81 1   
    82   80   83 1   
    83   80   87 1   
    84   81   82 2   
    85   81   93 1   
    86   83   84 1   
    87   83   85 1   
    88   83   88 1   
    89   84   90 1   
    90   84   91 1   
    91   84   92 1   
    92   85   89 1   
    93   93   94 1   
    94   93  101 1   
    95   94   95 1   
    96   94   97 1   
    97   94  102 1   
    98   95   96 2   
    99   95  112 1   
   100   97   98 1   
   101   97   99 1   
   102   97  103 1   
   103   98  100 1   
   104   98  104 1   
   105   98  105 1   
   106   99  106 1   
   107   99  107 1   
   108   99  108 1   
   109  100  109 1   
   110  100  110 1   
   111  100  111 1   
   112  112  113 1   
   113  112  119 1   
   114  113  114 1   
   115  113  116 1   
   116  113  120 1   
   117  114  115 2   
   118  114  126 1   
   119  116  117 1   
   120  116  118 1   
   121  116  121 1   
   122  117  123 1   
   123  117  124 1   
   124  117  125 1   
   125  118  122 1   
   126  126  127 1   
   127  126  133 1   
   128  127  128 1   
   129  127  130 1   
   130  127  134 1   
   131  128  129 2   
   132  128  140 1   
   133  130  131 1   
   134  130  132 1   
   135  130  135 1   
   136  131  137 1   
   137  131  138 1   
   138  131  139 1   
   139  132  136 1   
   140  140  141 1   
   141  140  149 1   
   142  141  142 1   
   143  141  144 1   
   144  141  150 1   
   145  142  143 2   
   146  142  162 1   
   147  144  145 1   
   148  144  151 1   
   149  144  152 1   
   150  145  146 1   
   151  145  153 1   
   152  145  154 1   
   153  146  147 1   
   154  146  155 1   
   155  146  156 1   
   156  147  148 1   
   157  147  157 1   
   158  147  158 1   
   159  148  159 1   
   160  148  160 1   
   161  148  161 1   
   162  162  163 1   
   163  162  171 1   
   164  163  164 1   
   165  163  166 1   
   166  163  172 1   
   167  164  165 2   
   168  164  177 1   
   169  166  167 1   
   170  166  173 1   
   171  166  174 1   
   172  167  168 1   
   173  167  175 1   
   174  167  176 1   
   175  168  169 1   
   176  168  170 1   
   177  177  178 1   
   178  177  182 1   
   179  178  179 1   
   180  178  180 1   
   181  178  181 1   
   182  184  185 1   
   183  184  186 1   
   184  187  188 1   
   185  187  189 1   
@<TRIPOS>SUBSTRUCTURE
     1 MOL         1 TEMP              0 ****  ****    0 ROOT
