@<TRIPOS>MOLECULE
MOL
  189   185     1     0     0
SMALL
resp


@<TRIPOS>ATOM
      1 C1         -0.3620    2.6160   -4.7890 c3        1 MOL     -0.473240
      2 C2          0.3460    2.3970   -3.4270 c         1 MOL      0.669935
      3 O1         -0.2850    2.7510   -2.4350 o         1 MOL     -0.576986
      4 H1         -1.1540    1.8760   -4.9090 hc        1 MOL      0.120525
      5 H2         -0.7930    3.6170   -4.8190 hc        1 MOL      0.120525
      6 H3          0.3610    2.5070   -5.5970 hc        1 MOL      0.120525
      7 N1          1.5940    1.9830   -3.4100 n         1 MOL     -0.650264
      8 C3          2.3760    1.5440   -2.2880 c3        1 MOL      0.376131
      9 C4          3.2830    2.6450   -1.7800 c         1 MOL      0.282501
     10 O2          4.4790    2.6190   -1.9740 o         1 MOL     -0.421986
     11 C5          3.1820    0.2590   -2.6650 c3        1 MOL     -0.245039
     12 C6          3.9530   -0.3660   -1.4770 c         1 MOL      0.640732
     13 O3          4.9800   -1.0560   -1.7670 o         1 MOL     -0.648678
     14 O4          3.5430   -0.1330   -0.3210 o         1 MOL     -0.648678
     15 H4          1.9430    1.5500   -4.2450 hn        1 MOL      0.325233
     16 H5          1.6950    1.3200   -1.4690 h1        1 MOL      0.021810
     17 H6          3.9390    0.4330   -3.4380 hc        1 MOL      0.057795
     18 H7          2.4270   -0.4500   -2.9990 hc        1 MOL      0.057795
     19 N2          2.6610    3.6780   -1.1610 n         1 MOL     -0.211470
     20 C7          3.3260    4.9520   -0.8890 c3        1 MOL     -0.069091
     21 C8          4.3910    4.7960    0.2110 c         1 MOL      0.535584
     22 O5          5.4500    5.4510    0.1710 o         1 MOL     -0.540650
     23 C9          2.3310    6.0770   -0.5180 c3        1 MOL     -0.314325
     24 C10         1.8400    6.5670   -1.8930 c3        1 MOL      0.279022
     25 C11         0.8180    7.6320   -1.6160 c3        1 MOL     -0.058985
     26 C12         0.3080    8.3620   -2.8130 c3        1 MOL     -0.067820
     27 N3         -0.7690    7.5690   -3.4180 n4        1 MOL     -0.384620
     28 H8          1.6490    3.6520   -1.1390 hn        1 MOL      0.266484
     29 H9          3.7890    5.3020   -1.8120 h1        1 MOL      0.100744
     30 H10         2.8780    6.8610    0.0040 hc        1 MOL      0.107704
     31 H11         1.5860    5.6140    0.1240 hc        1 MOL      0.107704
     32 H12         1.2470    5.8010   -2.3960 hc        1 MOL     -0.044189
     33 H13         2.5990    6.7720   -2.6460 hc        1 MOL     -0.044189
     34 H14         1.3100    8.3660   -0.9730 hc        1 MOL      0.043566
     35 H15         0.0750    7.2010   -0.9550 hc        1 MOL      0.043566
     36 H16         1.1300    8.6350   -3.4730 hx        1 MOL      0.115184
     37 H17        -0.0400    9.3090   -2.3920 hx        1 MOL      0.115184
     38 H18        -0.4720    6.6480   -3.6980 hn        1 MOL      0.342215
     39 H19        -1.5800    7.4200   -2.8390 hn        1 MOL      0.342215
     40 H20        -1.0130    7.9690   -4.3130 hn        1 MOL      0.342215
     41 N4          4.1980    3.7630    1.1320 n         1 MOL     -0.377866
     42 C13         5.1940    3.4740    2.1690 c3        1 MOL      0.043569
     43 C14         6.3730    2.5980    1.7010 c         1 MOL      0.373317
     44 O6          7.4650    2.5860    2.3200 o         1 MOL     -0.557450
     45 C15         4.5700    3.0140    3.4950 c3        1 MOL     -0.290434
     46 C16         3.3070    2.2100    3.3570 c         1 MOL      0.787022
     47 O7          3.2060    1.3440    2.4230 o         1 MOL     -0.703779
     48 O8          2.4280    2.4520    4.2310 o         1 MOL     -0.703779
     49 H21         3.4940    3.0510    0.9680 hn        1 MOL      0.225581
     50 H22         5.6270    4.4280    2.4520 h1        1 MOL      0.108557
     51 H23         4.3840    3.8960    4.1140 hc        1 MOL      0.082915
     52 H24         5.3180    2.4830    4.0900 hc        1 MOL      0.082915
     53 N5          6.1760    1.9700    0.5690 n         1 MOL      0.035274
     54 C17         7.0990    1.0650   -0.1810 c3        1 MOL     -0.203982
     55 C18         7.1930   -0.4650    0.3080 c         1 MOL      0.495821
     56 O9          8.1900   -1.1590   -0.0270 o         1 MOL     -0.589251
     57 H25         5.2290    2.0220    0.2450 hn        1 MOL     -0.053387
     58 H26         8.0790    1.5440   -0.2230 h1        1 MOL      0.122394
     59 H27         6.8150    1.1120   -1.2280 h1        1 MOL      0.122394
     60 N6          6.2820   -0.9600    1.1200 n         1 MOL     -0.298834
     61 C19         6.4430   -2.2330    1.8810 c3        1 MOL      0.017185
     62 C20         6.2410   -3.4080    1.0110 c         1 MOL      0.353088
     63 O10         6.2340   -4.5560    1.4330 o         1 MOL     -0.547755
     64 C21         5.5740   -2.3160    3.1580 c3        1 MOL     -0.205912
     65 C22         4.0800   -2.1230    2.9010 c         1 MOL      0.703825
     66 O11         3.3700   -1.4300    3.6620 o         1 MOL     -0.685112
     67 O12         3.6230   -2.4620    1.8110 o         1 MOL     -0.685112
     68 H28         5.4620   -0.3780    1.2010 hn        1 MOL      0.252761
     69 H29         7.4550   -2.2870    2.2690 h1        1 MOL      0.121068
     70 H30         5.9730   -1.5790    3.8600 hc        1 MOL      0.067879
     71 H31         5.6780   -3.2920    3.6310 hc        1 MOL      0.067879
     72 N7          6.0130   -3.2020   -0.2900 n         1 MOL     -0.004470
     73 C23         5.9930   -4.1760   -1.4420 c3        1 MOL     -0.490941
     74 C24         4.6210   -4.8530   -1.6630 c         1 MOL      0.695827
     75 O13         4.5240   -5.8710   -2.3070 o         1 MOL     -0.588803
     76 H32         5.9080   -2.2320   -0.5440 hn        1 MOL      0.261821
     77 H33         6.5930   -5.0330   -1.1300 h1        1 MOL      0.179980
     78 H34         6.1100   -3.7370   -2.4280 h1        1 MOL      0.179980
     79 N8          3.5690   -4.2910   -1.0380 n         1 MOL     -0.359935
     80 C25         2.2250   -4.7680   -0.9680 c3        1 MOL     -0.239658
     81 C26         1.1290   -3.6470   -1.0110 c         1 MOL      0.815873
     82 O14         1.3340   -2.5970   -0.4050 o         1 MOL     -0.649508
     83 C27         1.9810   -5.6020    0.2850 c3        1 MOL      0.577898
     84 C28         2.7210   -6.9520    0.2330 c3        1 MOL     -0.386862
     85 O15         2.3130   -4.9630    1.4960 oh        1 MOL     -0.683712
     86 H35         3.8070   -3.4280   -0.5720 hn        1 MOL      0.186904
     87 H36         2.0800   -5.4030   -1.8350 h1        1 MOL      0.086157
     88 H37         0.9200   -5.8120    0.1680 h1        1 MOL     -0.079482
     89 H38         2.9290   -4.2440    1.3380 ho        1 MOL      0.452652
     90 H39         2.6020   -7.4040    1.2150 hc        1 MOL      0.091914
     91 H40         2.1840   -7.6270   -0.4280 hc        1 MOL      0.091914
     92 H41         3.7650   -6.6470    0.1170 hc        1 MOL      0.091914
     93 N9          0.0220   -3.8740   -1.7860 n         1 MOL     -0.740916
     94 C29        -1.0300   -2.8720   -1.9220 c3        1 MOL      0.030080
     95 C30        -2.2510   -3.3190   -1.1320 c         1 MOL      0.615831
     96 O16        -2.9230   -4.3040   -1.5040 o         1 MOL     -0.585125
     97 C31        -1.4340   -2.6510   -3.4770 c3        1 MOL      0.381516
     98 C32        -0.2360   -2.4190   -4.3640 c3        1 MOL      0.142004
     99 C33        -2.4650   -1.4820   -3.4970 c3        1 MOL     -0.541875
    100 C34        -0.3920   -2.1640   -5.8510 c3        1 MOL     -0.188584
    101 H42        -0.0560   -4.7170   -2.3190 hn        1 MOL      0.353574
    102 H43        -0.7660   -1.9280   -1.4400 h1        1 MOL      0.077438
    103 H44        -1.8630   -3.5930   -3.8090 hc        1 MOL     -0.063422
    104 H45         0.4800   -3.2430   -4.2980 hc        1 MOL     -0.035688
    105 H46         0.2300   -1.5440   -3.8970 hc        1 MOL     -0.035688
    106 H47        -2.6620   -1.2820   -4.5470 hc        1 MOL      0.099828
    107 H48        -3.2990   -1.9120   -2.9370 hc        1 MOL      0.099828
    108 H49        -2.0250   -0.5930   -3.0340 hc        1 MOL      0.099828
    109 H50         0.6140   -1.9010   -6.1720 hc        1 MOL      0.038537
    110 H51        -0.8500   -3.0400   -6.3240 hc        1 MOL      0.038537
    111 H52        -0.9910   -1.3010   -6.1260 hc        1 MOL      0.038537
    112 N10        -2.5870   -2.6280   -0.0700 n         1 MOL     -0.435291
    113 C35        -3.8540   -2.8640    0.6920 c3        1 MOL     -0.008516
    114 C36        -5.0870   -2.3500   -0.0800 c         1 MOL      0.266574
    115 O17        -5.0620   -1.5490   -0.9510 o         1 MOL     -0.268619
    116 C37        -3.9370   -2.1580    2.0320 c3        1 MOL      0.232762
    117 C38        -3.1570   -2.9520    3.0590 c3        1 MOL     -0.438032
    118 O18        -3.5320   -0.7960    1.9550 oh        1 MOL     -0.490512
    119 H53        -1.9310   -1.9520    0.2960 hn        1 MOL      0.324174
    120 H54        -3.9970   -3.9320    0.8080 h1        1 MOL      0.115721
    121 H55        -4.9830   -2.1200    2.3480 h1        1 MOL      0.047900
    122 H56        -2.5870   -0.7490    1.7910 ho        1 MOL      0.345480
    123 H57        -3.4530   -3.9990    3.1040 hc        1 MOL      0.118995
    124 H58        -2.0900   -3.0150    2.8520 hc        1 MOL      0.118995
    125 H59        -3.1760   -2.5030    4.0540 hc        1 MOL      0.118995
    126 N11        -6.2360   -2.9080    0.2580 n         1 MOL     -0.208968
    127 C39        -7.5360   -2.3970   -0.2510 c3        1 MOL     -0.177241
    128 C40        -7.7240   -0.8820   -0.1300 c         1 MOL      0.298521
    129 O19        -8.3800   -0.2550   -0.9920 o         1 MOL     -0.430681
    130 C41        -8.7480   -2.9920    0.5810 c3        1 MOL      0.591443
    131 C42       -10.0650   -3.0600   -0.1220 c3        1 MOL     -0.498079
    132 O20        -8.4850   -4.3500    0.8800 oh        1 MOL     -0.616632
    133 H60        -6.2500   -3.6180    0.9750 hn        1 MOL      0.176409
    134 H61        -7.6630   -2.6910   -1.2940 h1        1 MOL      0.154808
    135 H62        -8.8310   -2.4210    1.5050 h1        1 MOL     -0.071510
    136 H63        -8.7660   -4.5710    1.7650 ho        1 MOL      0.374214
    137 H64        -9.8860   -3.6330   -1.0280 hc        1 MOL      0.129232
    138 H65       -10.8370   -3.4490    0.5480 hc        1 MOL      0.129232
    139 H66       -10.4460   -2.0500   -0.3080 hc        1 MOL      0.129232
    140 N12        -7.2110   -0.3160    1.0160 n         1 MOL     -0.237421
    141 C43        -6.9920    1.1280    1.3640 c3        1 MOL     -0.081472
    142 C44        -6.2090    1.8200    0.2510 c         1 MOL      0.325426
    143 O21        -6.8390    2.7050   -0.3670 o         1 MOL     -0.474011
    144 C45        -6.2750    1.2230    2.7220 c3        1 MOL      0.365114
    145 C46        -5.8850    2.5670    3.2830 c3        1 MOL     -0.350252
    146 C47        -6.1050    2.6360    4.8540 c3        1 MOL      0.309336
    147 C48        -5.9420    4.1250    5.3880 c3        1 MOL      0.024378
    148 N13        -6.2530    4.2620    6.8310 n4        1 MOL     -0.458380
    149 H67        -6.9320   -0.8940    1.7920 hn        1 MOL      0.165712
    150 H68        -7.8790    1.7540    1.4500 h1        1 MOL      0.086203
    151 H69        -5.4050    0.5630    2.6670 hc        1 MOL     -0.083837
    152 H70        -6.9180    0.8220    3.5000 hc        1 MOL     -0.083837
    153 H71        -6.5820    3.2270    2.7780 hc        1 MOL      0.077063
    154 H72        -4.8020    2.6610    3.1460 hc        1 MOL      0.077063
    155 H73        -5.4980    1.9300    5.4070 hc        1 MOL     -0.043863
    156 H74        -7.1560    2.4400    5.0450 hc        1 MOL     -0.043863
    157 H75        -6.6750    4.7550    4.8840 hx        1 MOL      0.075339
    158 H76        -4.9240    4.3880    5.0860 hx        1 MOL      0.075339
    159 H77        -7.2400    4.1120    6.9910 hn        1 MOL      0.335827
    160 H78        -5.6660    3.7000    7.4190 hn        1 MOL      0.335827
    161 H79        -6.0150    5.2210    7.0530 hn        1 MOL      0.335827
    162 N14        -4.9700    1.4550   -0.0790 n         1 MOL     -0.124738
    163 C49        -4.1370    1.9800   -1.1400 c3        1 MOL     -0.206896
    164 C50        -4.7590    1.9140   -2.5380 c         1 MOL      0.425164
    165 O22        -4.7190    2.8960   -3.2860 o         1 MOL     -0.559848
    166 C51        -2.8220    1.2840   -1.0410 c3        1 MOL      0.020888
    167 C52        -2.0030    1.7440    0.1780 c3        1 MOL     -0.255366
    168 C53        -0.6960    0.9470    0.4370 c         1 MOL      0.796101
    169 O23        -0.7770   -0.3020    0.5120 o         1 MOL     -0.794328
    170 O24         0.4240    1.4690    0.5710 o         1 MOL     -0.794328
    171 H80        -4.4980    0.7200    0.4330 hn        1 MOL      0.145001
    172 H81        -3.9450    3.0170   -0.8670 h1        1 MOL      0.110613
    173 H82        -2.1980    1.4100   -1.9240 hc        1 MOL      0.097528
    174 H83        -2.9410    0.2100   -0.9240 hc        1 MOL      0.097528
    175 H84        -2.5600    1.6210    1.1090 hc        1 MOL      0.054847
    176 H85        -1.7660    2.8060    0.0970 hc        1 MOL      0.054847
    177 N15        -5.3480    0.7830   -2.9590 n         1 MOL     -0.014097
    178 C54        -6.0360    0.6530   -4.2890 c3        1 MOL     -0.186718
    179 H86        -6.8010   -0.1220   -4.2270 h1        1 MOL      0.083805
    180 H87        -6.5020    1.6020   -4.5520 h1        1 MOL      0.083805
    181 H88        -5.3060    0.3820   -5.0510 h1        1 MOL      0.083805
    182 H89        -5.2330   -0.0350   -2.3860 hn        1 MOL      0.112702
    183 Ca1         1.7660   -0.6900    1.3780 Ca        1 MOL      1.733872
    184 O25         0.4690   -2.8090    2.4790 oh        1 MOL     -0.788117
    185 H90         0.5010   -2.6170    3.4180 ho        1 MOL      0.375687
    186 H91         0.4130   -3.7610    2.4270 ho        1 MOL      0.375687
    187 O26         0.5070    0.1950    3.5610 oh        1 MOL     -0.788117
    188 H92        -0.4290    0.2860    3.7310 ho        1 MOL      0.375687
    189 H93         0.8960    0.9730    3.9510 ho        1 MOL      0.375687
@<TRIPOS>BOND
     1    1    2 1   
     2    1    4 1   
     3    1    5 1   
     4    1    6 1   
     5    2    3 2   
     6    2    7 1   
     7    7    8 1   
     8    7   15 1   
     9    8    9 1   
    10    8   11 1   
    11    8   16 1   
    12    9   10 2   
    13    9   19 1   
    14   11   12 1   
    15   11   17 1   
    16   11   18 1   
    17   12   13 1   
    18   12   14 1   
    19   19   20 1   
    20   19   28 1   
    21   20   21 1   
    22   20   23 1   
    23   20   29 1   
    24   21   22 2   
    25   21   41 1   
    26   23   24 1   
    27   23   30 1   
    28   23   31 1   
    29   24   25 1   
    30   24   32 1   
    31   24   33 1   
    32   25   26 1   
    33   25   34 1   
    34   25   35 1   
    35   26   27 1   
    36   26   36 1   
    37   26   37 1   
    38   27   38 1   
    39   27   39 1   
    40   27   40 1   
    41   41   42 1   
    42   41   49 1   
    43   42   43 1   
    44   42   45 1   
    45   42   50 1   
    46   43   44 2   
    47   43   53 1   
    48   45   46 1   
    49   45   51 1   
    50   45   52 1   
    51   46   47 1   
    52   46   48 1   
    53   53   54 1   
    54   53   57 1   
    55   54   55 1   
    56   54   58 1   
    57   54   59 1   
    58   55   56 2   
    59   55   60 1   
    60   60   61 1   
    61   60   68 1   
    62   61   62 1   
    63   61   64 1   
    64   61   69 1   
    65   62   63 2   
    66   62   72 1   
    67   64   65 1   
    68   64   70 1   
    69   64   71 1   
    70   65   66 1   
    71   65   67 1   
    72   72   73 1   
    73   72   76 1   
    74   73   74 1   
    75   73   77 1   
    76   73   78 1   
    77   74   75 2   
    78   74   79 1   
    79   79   80 1   
    80   79   86 1   
    81   80   81 1   
    82   80   83 1   
    83   80   87 1   
    84   81   82 2   
    85   81   93 1   
    86   83   84 1   
    87   83   85 1   
    88   83   88 1   
    89   84   90 1   
    90   84   91 1   
    91   84   92 1   
    92   85   89 1   
    93   93   94 1   
    94   93  101 1   
    95   94   95 1   
    96   94   97 1   
    97   94  102 1   
    98   95   96 2   
    99   95  112 1   
   100   97   98 1   
   101   97   99 1   
   102   97  103 1   
   103   98  100 1   
   104   98  104 1   
   105   98  105 1   
   106   99  106 1   
   107   99  107 1   
   108   99  108 1   
   109  100  109 1   
   110  100  110 1   
   111  100  111 1   
   112  112  113 1   
   113  112  119 1   
   114  113  114 1   
   115  113  116 1   
   116  113  120 1   
   117  114  115 2   
   118  114  126 1   
   119  116  117 1   
   120  116  118 1   
   121  116  121 1   
   122  117  123 1   
   123  117  124 1   
   124  117  125 1   
   125  118  122 1   
   126  126  127 1   
   127  126  133 1   
   128  127  128 1   
   129  127  130 1   
   130  127  134 1   
   131  128  129 2   
   132  128  140 1   
   133  130  131 1   
   134  130  132 1   
   135  130  135 1   
   136  131  137 1   
   137  131  138 1   
   138  131  139 1   
   139  132  136 1   
   140  140  141 1   
   141  140  149 1   
   142  141  142 1   
   143  141  144 1   
   144  141  150 1   
   145  142  143 2   
   146  142  162 1   
   147  144  145 1   
   148  144  151 1   
   149  144  152 1   
   150  145  146 1   
   151  145  153 1   
   152  145  154 1   
   153  146  147 1   
   154  146  155 1   
   155  146  156 1   
   156  147  148 1   
   157  147  157 1   
   158  147  158 1   
   159  148  159 1   
   160  148  160 1   
   161  148  161 1   
   162  162  163 1   
   163  162  171 1   
   164  163  164 1   
   165  163  166 1   
   166  163  172 1   
   167  164  165 2   
   168  164  177 1   
   169  166  167 1   
   170  166  173 1   
   171  166  174 1   
   172  167  168 1   
   173  167  175 1   
   174  167  176 1   
   175  168  169 1   
   176  168  170 1   
   177  177  178 1   
   178  177  182 1   
   179  178  179 1   
   180  178  180 1   
   181  178  181 1   
   182  184  185 1   
   183  184  186 1   
   184  187  188 1   
   185  187  189 1   
@<TRIPOS>SUBSTRUCTURE
     1 MOL         1 TEMP              0 ****  ****    0 ROOT
