@<TRIPOS>MOLECULE
MOL
  189   185     1     0     0
SMALL
resp


@<TRIPOS>ATOM
      1 C1          1.1800    4.0030   -5.0500 c3        1 MOL     -0.454225
      2 C2          1.2880    3.0460   -3.8190 c         1 MOL      0.705877
      3 O1          0.3440    3.0080   -3.0540 o         1 MOL     -0.570133
      4 H1          2.1640    4.1250   -5.5010 hc        1 MOL      0.111776
      5 H2          0.4940    3.5770   -5.7820 hc        1 MOL      0.111776
      6 H3          0.8070    4.9750   -4.7240 hc        1 MOL      0.111776
      7 N1          2.4710    2.4620   -3.5610 n         1 MOL     -0.603192
      8 C3          2.9090    1.9940   -2.2540 c3        1 MOL      0.057394
      9 C4          3.2810    3.2070   -1.3480 c         1 MOL      0.488874
     10 O2          4.3240    3.7720   -1.5410 o         1 MOL     -0.534305
     11 C5          4.0510    0.8990   -2.3370 c3        1 MOL     -0.220541
     12 C6          4.5670    0.5290   -0.9680 c         1 MOL      0.805909
     13 O3          3.7650    0.3990    0.0190 o         1 MOL     -0.692455
     14 O4          5.7800    0.2460   -0.8720 o         1 MOL     -0.692455
     15 H4          3.1620    2.5430   -4.2970 hn        1 MOL      0.349079
     16 H5          2.0380    1.5030   -1.8190 h1        1 MOL      0.038867
     17 H6          4.8000    1.2100   -3.0660 hc        1 MOL      0.051626
     18 H7          3.5460    0.0430   -2.7990 hc        1 MOL      0.051626
     19 N2          2.3670    3.5210   -0.4050 n         1 MOL     -0.153802
     20 C7          2.3560    4.7340    0.4990 c3        1 MOL     -0.298738
     21 C8          3.1120    4.6430    1.7480 c         1 MOL      0.698644
     22 O5          3.4210    5.5640    2.3930 o         1 MOL     -0.590080
     23 C9          0.9140    5.1840    0.8500 c3        1 MOL      0.060492
     24 C10         0.1020    5.3760   -0.4540 c3        1 MOL     -0.018903
     25 C11         0.4820    6.6480   -1.0900 c3        1 MOL     -0.247589
     26 C12        -0.4640    7.0890   -2.1630 c3        1 MOL      0.208212
     27 N3          0.0290    8.3820   -2.6390 n4        1 MOL     -0.374503
     28 H8          1.5550    2.9390   -0.2550 hn        1 MOL      0.319141
     29 H9          2.8290    5.5010   -0.1140 h1        1 MOL      0.084288
     30 H10         0.9470    6.0190    1.5530 hc        1 MOL      0.018644
     31 H11         0.3290    4.4190    1.3670 hc        1 MOL      0.018644
     32 H12        -0.9090    5.4110   -0.0550 hc        1 MOL      0.050139
     33 H13         0.1310    4.5290   -1.1450 hc        1 MOL      0.050139
     34 H14         1.4410    6.6280   -1.6080 hc        1 MOL      0.084943
     35 H15         0.5240    7.4260   -0.3240 hc        1 MOL      0.084943
     36 H16        -1.5040    7.1360   -1.8190 hx        1 MOL      0.048372
     37 H17        -0.4430    6.3830   -2.9940 hx        1 MOL      0.048372
     38 H18        -0.3250    9.1170   -2.0450 hn        1 MOL      0.319268
     39 H19         1.0370    8.4300   -2.5860 hn        1 MOL      0.319268
     40 H20        -0.2470    8.5950   -3.5850 hn        1 MOL      0.319268
     41 N4          3.5560    3.4440    2.1390 n         1 MOL     -0.367525
     42 C13         4.3020    3.1630    3.3390 c3        1 MOL     -0.037918
     43 C14         5.4910    2.1850    3.0850 c         1 MOL      0.474680
     44 O6          5.9840    1.5020    3.9940 o         1 MOL     -0.496823
     45 C15         3.3390    2.6110    4.4560 c3        1 MOL     -0.117447
     46 C16         2.3760    1.4630    3.9930 c         1 MOL      0.728134
     47 O7          2.4950    0.8970    2.9190 o         1 MOL     -0.696870
     48 O8          1.5000    1.0080    4.7970 o         1 MOL     -0.696870
     49 H21         3.1420    2.6710    1.6470 hn        1 MOL      0.158170
     50 H22         4.6200    4.1470    3.6940 h1        1 MOL      0.114640
     51 H23         2.6740    3.4340    4.7490 hc        1 MOL      0.040416
     52 H24         3.8460    2.4260    5.4020 hc        1 MOL      0.040416
     53 N5          5.9810    2.1020    1.8030 n         1 MOL     -0.463776
     54 C17         7.3060    1.5480    1.3140 c3        1 MOL      0.106518
     55 C18         7.4580    0.0440    1.6000 c         1 MOL      0.371407
     56 O9          8.5870   -0.4390    1.8600 o         1 MOL     -0.558608
     57 H25         5.3680    2.4750    1.0880 hn        1 MOL      0.233611
     58 H26         8.1890    2.1100    1.6070 h1        1 MOL      0.058830
     59 H27         7.2900    1.6680    0.2260 h1        1 MOL      0.058830
     60 N6          6.3650   -0.7530    1.7720 n         1 MOL     -0.094418
     61 C19         6.4670   -2.2130    1.9400 c3        1 MOL     -0.084732
     62 C20         6.7100   -3.0220    0.6340 c         1 MOL      0.375172
     63 O10         7.0100   -4.2450    0.6270 o         1 MOL     -0.542174
     64 C21         5.3640   -2.8840    2.7570 c3        1 MOL     -0.239407
     65 C22         3.9800   -2.6610    2.2770 c         1 MOL      0.628861
     66 O11         3.7810   -2.6000    1.0670 o         1 MOL     -0.606966
     67 O12         3.0520   -2.4200    3.0640 o         1 MOL     -0.606966
     68 H28         5.4510   -0.3570    1.5970 hn        1 MOL      0.211838
     69 H29         7.4120   -2.3180    2.4620 h1        1 MOL      0.137683
     70 H30         5.2890   -2.5390    3.7860 hc        1 MOL      0.080148
     71 H31         5.6020   -3.9490    2.7310 hc        1 MOL      0.080148
     72 N7          6.5950   -2.4320   -0.4990 n         1 MOL     -0.105152
     73 C23         6.6820   -3.1260   -1.7990 c3        1 MOL     -0.149291
     74 C24         5.3610   -3.8280   -2.2140 c         1 MOL      0.627107
     75 O13         5.3870   -4.5900   -3.1090 o         1 MOL     -0.582146
     76 H32         6.3630   -1.4550   -0.4660 hn        1 MOL      0.200666
     77 H33         7.4810   -3.8600   -1.8770 h1        1 MOL      0.077331
     78 H34         6.8010   -2.3110   -2.5140 h1        1 MOL      0.077331
     79 N8          4.2120   -3.5280   -1.5820 n         1 MOL     -0.249203
     80 C25         2.8860   -4.1200   -1.9680 c3        1 MOL     -0.100904
     81 C26         1.7040   -3.0750   -1.7500 c         1 MOL      0.478926
     82 O14         1.9350   -2.0040   -1.2080 o         1 MOL     -0.552125
     83 C27         2.5150   -5.3390   -1.1260 c3        1 MOL      0.482410
     84 C28         3.3730   -6.5960   -1.3210 c3        1 MOL     -0.416259
     85 O15         2.5620   -4.9910    0.2600 oh        1 MOL     -0.667897
     86 H35         4.2400   -2.8300   -0.8510 hn        1 MOL      0.108040
     87 H36         2.9050   -4.5710   -2.9610 h1        1 MOL      0.071949
     88 H37         1.4520   -5.6040   -1.2290 h1        1 MOL     -0.014191
     89 H38         3.1110   -4.2050    0.3520 ho        1 MOL      0.390898
     90 H39         4.4040   -6.3750   -1.5930 hc        1 MOL      0.100895
     91 H40         3.3700   -7.1890   -0.4040 hc        1 MOL      0.100895
     92 H41         2.8360   -7.1310   -2.1060 hc        1 MOL      0.100895
     93 N9          0.5380   -3.3370   -2.3650 n         1 MOL     -0.451349
     94 C29        -0.6570   -2.4520   -2.3950 c3        1 MOL      0.205375
     95 C30        -1.8380   -3.0030   -1.5960 c         1 MOL      0.372968
     96 O16        -2.2680   -4.0850   -2.0400 o         1 MOL     -0.555039
     97 C31        -1.1070   -2.1960   -3.8720 c3        1 MOL     -0.039136
     98 C32        -0.1000   -1.6250   -4.9270 c3        1 MOL      0.035360
     99 C33        -2.3160   -1.2360   -4.0080 c3        1 MOL     -0.276263
    100 C34         0.6320   -0.3520   -4.5340 c3        1 MOL     -0.051775
    101 H42         0.4280   -4.2740   -2.7120 hn        1 MOL      0.249382
    102 H43        -0.3680   -1.5150   -1.9260 h1        1 MOL      0.060714
    103 H44        -1.5080   -3.0900   -4.3450 hc        1 MOL      0.043918
    104 H45        -0.6110   -1.5700   -5.8950 hc        1 MOL     -0.006742
    105 H46         0.6750   -2.3570   -5.1100 hc        1 MOL     -0.006742
    106 H47        -2.1310   -0.2010   -3.7120 hc        1 MOL      0.062976
    107 H48        -2.6080   -1.0780   -5.0380 hc        1 MOL      0.062976
    108 H49        -3.1650   -1.5190   -3.3880 hc        1 MOL      0.062976
    109 H50         1.1270   -0.4920   -3.5670 hc        1 MOL      0.028139
    110 H51         1.3370   -0.0840   -5.3190 hc        1 MOL      0.028139
    111 H52        -0.0710    0.4790   -4.5020 hc        1 MOL      0.028139
    112 N10        -2.4330   -2.3190   -0.6200 n         1 MOL     -0.029759
    113 C35        -3.6710   -2.7930    0.0750 c3        1 MOL      0.044415
    114 C36        -4.9000   -2.1770   -0.6770 c         1 MOL      0.259827
    115 O17        -4.7680   -1.2530   -1.4830 o         1 MOL     -0.186298
    116 C37        -3.7280   -2.2660    1.5290 c3        1 MOL      0.083626
    117 C38        -2.6150   -2.7120    2.4620 c3        1 MOL     -0.487587
    118 O18        -3.6850   -0.8380    1.5550 oh        1 MOL     -0.207719
    119 H53        -2.0540   -1.4700   -0.2250 hn        1 MOL      0.092659
    120 H54        -3.8890   -3.8560    0.1340 h1        1 MOL      0.071557
    121 H55        -4.6530   -2.5620    2.0380 h1        1 MOL      0.017610
    122 H56        -3.3510   -0.5450    2.4090 ho        1 MOL      0.318017
    123 H57        -2.5850   -3.7940    2.3150 hc        1 MOL      0.144710
    124 H58        -1.6530   -2.3220    2.1360 hc        1 MOL      0.144710
    125 H59        -2.6690   -2.3690    3.4980 hc        1 MOL      0.144710
    126 N11        -6.1370   -2.6700   -0.3500 n         1 MOL     -0.372722
    127 C39        -7.3200   -2.0180   -0.8410 c3        1 MOL     -0.056744
    128 C40        -7.3690   -0.5070   -0.4230 c         1 MOL      0.245635
    129 O19        -7.9290    0.2840   -1.1870 o         1 MOL     -0.461825
    130 C41        -8.5460   -2.6050   -0.2460 c3        1 MOL      0.287744
    131 C42        -8.8670   -3.8400   -0.9980 c3        1 MOL     -0.309762
    132 O20        -8.3250   -2.6820    1.1830 oh        1 MOL     -0.633726
    133 H60        -6.1990   -3.4250    0.3140 hn        1 MOL      0.305538
    134 H61        -7.4660   -2.0950   -1.9190 h1        1 MOL      0.151969
    135 H62        -9.4040   -2.0030   -0.5070 h1        1 MOL      0.038002
    136 H63        -9.0810   -3.0620    1.6360 ho        1 MOL      0.409214
    137 H64        -8.0900   -4.5530   -0.7000 hc        1 MOL      0.086963
    138 H65        -9.7970   -4.3060   -0.6880 hc        1 MOL      0.086963
    139 H66        -8.7770   -3.7040   -2.0760 hc        1 MOL      0.086963
    140 N12        -6.7200   -0.1180    0.7330 n         1 MOL      0.081231
    141 C43        -6.6770    1.2450    1.2750 c3        1 MOL     -0.055060
    142 C44        -5.9430    2.1550    0.3290 c         1 MOL      0.350353
    143 O21        -6.4770    3.2240   -0.0460 o         1 MOL     -0.505844
    144 C45        -6.3390    1.3260    2.7930 c3        1 MOL     -0.080834
    145 C46        -6.9270    0.2030    3.7120 c3        1 MOL     -0.317007
    146 C47        -8.4490    0.2380    3.8940 c3        1 MOL      0.250187
    147 C48        -8.9730   -0.4690    5.1460 c3        1 MOL      0.023227
    148 N13       -10.4170   -0.1890    5.3970 n4        1 MOL     -0.342036
    149 H67        -6.1140   -0.7850    1.1920 hn        1 MOL      0.063184
    150 H68        -7.7160    1.4870    1.0260 h1        1 MOL      0.061552
    151 H69        -6.7270    2.3050    3.0500 hc        1 MOL      0.083957
    152 H70        -5.2690    1.4330    2.9230 hc        1 MOL      0.083957
    153 H71        -6.5200    0.4570    4.6840 hc        1 MOL      0.087464
    154 H72        -6.6490   -0.7970    3.3810 hc        1 MOL      0.087464
    155 H73        -8.8420   -0.2850    3.0200 hc        1 MOL     -0.036928
    156 H74        -8.8960    1.2330    3.8350 hc        1 MOL     -0.036928
    157 H75        -8.4350   -0.0340    5.9940 hx        1 MOL      0.072424
    158 H76        -8.7820   -1.5370    5.0860 hx        1 MOL      0.072424
    159 H77       -11.0590   -0.5990    4.7290 hn        1 MOL      0.299046
    160 H78       -10.5380   -0.5060    6.3400 hn        1 MOL      0.299046
    161 H79       -10.5410    0.8170    5.3700 hn        1 MOL      0.299046
    162 N14        -4.8080    1.6400   -0.1540 n         1 MOL     -0.000494
    163 C49        -3.8210    2.1830   -1.1020 c3        1 MOL     -0.247970
    164 C50        -4.4470    2.2380   -2.5470 c         1 MOL      0.497839
    165 O22        -4.0810    3.0970   -3.3260 o         1 MOL     -0.562209
    166 C51        -2.5170    1.2950   -1.0480 c3        1 MOL      0.190332
    167 C52        -1.7270    1.5460    0.2730 c3        1 MOL     -0.022733
    168 C53        -0.5100    0.7280    0.4010 c         1 MOL      0.654428
    169 O23        -0.5650   -0.5450    0.5960 o         1 MOL     -0.744474
    170 O24         0.5970    1.2410    0.1710 o         1 MOL     -0.744474
    171 H80        -4.5750    0.7120    0.1530 hn        1 MOL     -0.130352
    172 H81        -3.4700    3.1750   -0.8260 h1        1 MOL      0.107839
    173 H82        -1.8500    1.4790   -1.8810 hc        1 MOL      0.030892
    174 H83        -2.7900    0.2400   -1.0860 hc        1 MOL      0.030892
    175 H84        -2.2890    1.3470    1.1880 hc        1 MOL     -0.040438
    176 H85        -1.5320    2.6110    0.1510 hc        1 MOL     -0.040438
    177 N15        -5.2580    1.2250   -2.8720 n         1 MOL     -0.034014
    178 C54        -5.8570    0.9300   -4.1350 c3        1 MOL     -0.241802
    179 H86        -5.2160    1.2980   -4.9360 h1        1 MOL      0.091547
    180 H87        -5.9820   -0.1490   -4.2370 h1        1 MOL      0.091547
    181 H88        -6.8310    1.4160   -4.1990 h1        1 MOL      0.091547
    182 H89        -5.1450    0.4460   -2.2360 hn        1 MOL      0.034383
    183 Ca1         1.8580   -0.8250    1.1560 Ca        1 MOL      1.703298
    184 O25         0.6770   -3.2580    1.7550 oh        1 MOL     -0.800648
    185 H90         0.1660   -4.0540    1.6120 ho        1 MOL      0.370476
    186 H91         1.4930   -3.5700    2.1530 ho        1 MOL      0.370476
    187 O26         0.3470   -0.7980    3.4390 oh        1 MOL     -0.800648
    188 H92         0.8020   -0.2130    4.0420 ho        1 MOL      0.370476
    189 H93        -0.5060   -0.3910    3.2970 ho        1 MOL      0.370476
@<TRIPOS>BOND
     1    1    2 1   
     2    1    4 1   
     3    1    5 1   
     4    1    6 1   
     5    2    3 2   
     6    2    7 1   
     7    7    8 1   
     8    7   15 1   
     9    8    9 1   
    10    8   11 1   
    11    8   16 1   
    12    9   10 2   
    13    9   19 1   
    14   11   12 1   
    15   11   17 1   
    16   11   18 1   
    17   12   13 1   
    18   12   14 1   
    19   19   20 1   
    20   19   28 1   
    21   20   21 1   
    22   20   23 1   
    23   20   29 1   
    24   21   22 2   
    25   21   41 1   
    26   23   24 1   
    27   23   30 1   
    28   23   31 1   
    29   24   25 1   
    30   24   32 1   
    31   24   33 1   
    32   25   26 1   
    33   25   34 1   
    34   25   35 1   
    35   26   27 1   
    36   26   36 1   
    37   26   37 1   
    38   27   38 1   
    39   27   39 1   
    40   27   40 1   
    41   41   42 1   
    42   41   49 1   
    43   42   43 1   
    44   42   45 1   
    45   42   50 1   
    46   43   44 2   
    47   43   53 1   
    48   45   46 1   
    49   45   51 1   
    50   45   52 1   
    51   46   47 1   
    52   46   48 1   
    53   53   54 1   
    54   53   57 1   
    55   54   55 1   
    56   54   58 1   
    57   54   59 1   
    58   55   56 2   
    59   55   60 1   
    60   60   61 1   
    61   60   68 1   
    62   61   62 1   
    63   61   64 1   
    64   61   69 1   
    65   62   63 2   
    66   62   72 1   
    67   64   65 1   
    68   64   70 1   
    69   64   71 1   
    70   65   66 1   
    71   65   67 1   
    72   72   73 1   
    73   72   76 1   
    74   73   74 1   
    75   73   77 1   
    76   73   78 1   
    77   74   75 2   
    78   74   79 1   
    79   79   80 1   
    80   79   86 1   
    81   80   81 1   
    82   80   83 1   
    83   80   87 1   
    84   81   82 2   
    85   81   93 1   
    86   83   84 1   
    87   83   85 1   
    88   83   88 1   
    89   84   90 1   
    90   84   91 1   
    91   84   92 1   
    92   85   89 1   
    93   93   94 1   
    94   93  101 1   
    95   94   95 1   
    96   94   97 1   
    97   94  102 1   
    98   95   96 2   
    99   95  112 1   
   100   97   98 1   
   101   97   99 1   
   102   97  103 1   
   103   98  100 1   
   104   98  104 1   
   105   98  105 1   
   106   99  106 1   
   107   99  107 1   
   108   99  108 1   
   109  100  109 1   
   110  100  110 1   
   111  100  111 1   
   112  112  113 1   
   113  112  119 1   
   114  113  114 1   
   115  113  116 1   
   116  113  120 1   
   117  114  115 2   
   118  114  126 1   
   119  116  117 1   
   120  116  118 1   
   121  116  121 1   
   122  117  123 1   
   123  117  124 1   
   124  117  125 1   
   125  118  122 1   
   126  126  127 1   
   127  126  133 1   
   128  127  128 1   
   129  127  130 1   
   130  127  134 1   
   131  128  129 2   
   132  128  140 1   
   133  130  131 1   
   134  130  132 1   
   135  130  135 1   
   136  131  137 1   
   137  131  138 1   
   138  131  139 1   
   139  132  136 1   
   140  140  141 1   
   141  140  149 1   
   142  141  142 1   
   143  141  144 1   
   144  141  150 1   
   145  142  143 2   
   146  142  162 1   
   147  144  145 1   
   148  144  151 1   
   149  144  152 1   
   150  145  146 1   
   151  145  153 1   
   152  145  154 1   
   153  146  147 1   
   154  146  155 1   
   155  146  156 1   
   156  147  148 1   
   157  147  157 1   
   158  147  158 1   
   159  148  159 1   
   160  148  160 1   
   161  148  161 1   
   162  162  163 1   
   163  162  171 1   
   164  163  164 1   
   165  163  166 1   
   166  163  172 1   
   167  164  165 2   
   168  164  177 1   
   169  166  167 1   
   170  166  173 1   
   171  166  174 1   
   172  167  168 1   
   173  167  175 1   
   174  167  176 1   
   175  168  169 1   
   176  168  170 1   
   177  177  178 1   
   178  177  182 1   
   179  178  179 1   
   180  178  180 1   
   181  178  181 1   
   182  184  185 1   
   183  184  186 1   
   184  187  188 1   
   185  187  189 1   
@<TRIPOS>SUBSTRUCTURE
     1 MOL         1 TEMP              0 ****  ****    0 ROOT
