@<TRIPOS>MOLECULE
MOL
  175   173     1     0     0
SMALL
resp


@<TRIPOS>ATOM
      1 C1         -0.1680   -4.1650    5.6440 c3        1 MOL     -0.382413
      2 C2          0.4540   -4.1890    4.2030 c         1 MOL      0.692292
      3 O1         -0.2370   -4.4210    3.2440 o         1 MOL     -0.519483
      4 H1          0.6290   -4.2150    6.3850 hc        1 MOL      0.090757
      5 H2         -0.7320   -3.2420    5.7810 hc        1 MOL      0.090757
      6 H3         -0.8330   -5.0200    5.7680 hc        1 MOL      0.090757
      7 N1          1.7550   -3.9170    4.0320 n         1 MOL     -0.590360
      8 C3          2.2840   -3.5610    2.7180 c3        1 MOL      0.261814
      9 C4          2.1570   -4.6370    1.6830 c         1 MOL      0.482549
     10 O2          2.2410   -5.8040    2.0980 o         1 MOL     -0.570134
     11 C5          3.7690   -3.1750    2.8060 c3        1 MOL     -0.213889
     12 C6          4.3050   -2.8030    1.4650 c         1 MOL      0.602053
     13 O3          3.8420   -1.8290    0.8540 o         1 MOL     -0.603588
     14 O4          5.1670   -3.5570    0.9280 o         1 MOL     -0.603588
     15 H4          2.2620   -3.8040    4.9070 hn        1 MOL      0.298370
     16 H5          1.7120   -2.6870    2.3960 h1        1 MOL     -0.017865
     17 H6          4.2150   -4.0520    3.2780 hc        1 MOL      0.038801
     18 H7          3.9460   -2.3510    3.4990 hc        1 MOL      0.038801
     19 N2          1.9990   -4.2740    0.4370 n         1 MOL     -0.406627
     20 C7          1.9430   -5.1910   -0.6950 c3        1 MOL      0.494381
     21 C8          2.8220   -4.8640   -1.9400 c         1 MOL      0.274003
     22 O5          2.5750   -5.4140   -3.0360 o         1 MOL     -0.535532
     23 C9          0.4970   -5.4090   -1.1180 c3        1 MOL     -0.373783
     24 H8          1.9260   -3.2940    0.2180 hn        1 MOL      0.229781
     25 H9          2.2480   -6.1970   -0.3800 h1        1 MOL     -0.023944
     26 H10         0.1110   -4.6740   -1.8160 hc        1 MOL      0.083404
     27 H11         0.4170   -6.3980   -1.5630 hc        1 MOL      0.083404
     28 H12        -0.1420   -5.4550   -0.2290 hc        1 MOL      0.083404
     29 N3          3.7850   -3.9440   -1.8340 n         1 MOL     -0.124369
     30 C10         4.5100   -3.3460   -2.9960 c3        1 MOL      0.050927
     31 C11         5.8680   -2.7910   -2.6050 c         1 MOL      0.318220
     32 O6          6.7760   -2.6630   -3.4170 o         1 MOL     -0.550909
     33 C12         3.7030   -2.3380   -3.7470 c3        1 MOL     -0.056334
     34 C13         3.0670   -1.2830   -2.9050 c         1 MOL      0.707945
     35 O7          1.9490   -0.8540   -3.0550 o         1 MOL     -0.718150
     36 O8          3.7020   -0.7360   -1.9920 o         1 MOL     -0.718150
     37 H13         4.0790   -3.6750   -0.9000 hn        1 MOL      0.037675
     38 H14         4.6580   -4.1820   -3.6910 h1        1 MOL      0.058279
     39 H15         2.8990   -2.8260   -4.2850 hc        1 MOL      0.024331
     40 H16         4.2800   -1.8280   -4.5250 hc        1 MOL      0.024331
     41 N4          6.0560   -2.3850   -1.3230 n         1 MOL      0.049023
     42 C14         7.2230   -1.7320   -0.7860 c3        1 MOL     -0.237465
     43 C15         7.3140   -0.1790   -1.0410 c         1 MOL      0.537793
     44 O9          8.3870    0.4290   -1.0310 o         1 MOL     -0.614142
     45 H17         5.2870   -2.5710   -0.6990 hn        1 MOL      0.053400
     46 H18         8.0770   -2.2410   -1.2220 h1        1 MOL      0.098883
     47 H19         7.2980   -1.9630    0.2860 h1        1 MOL      0.098883
     48 N5          6.1710    0.5340   -1.2870 n         1 MOL     -0.198752
     49 C16         6.2210    1.8880   -1.9140 c3        1 MOL      0.002406
     50 C17         6.1620    3.0740   -0.9060 c         1 MOL      0.304812
     51 O10         5.9300    4.2010   -1.3710 o         1 MOL     -0.481243
     52 C18         5.1110    1.9240   -3.0410 c3        1 MOL     -0.334062
     53 C19         3.7230    2.0880   -2.5700 c         1 MOL      0.335105
     54 N6          2.7320    2.3030   -3.3600 n         1 MOL     -0.457041
     55 O11         3.4420    2.0490   -1.3320 o         1 MOL      0.028629
     56 H20         5.2830    0.0510   -1.3160 hn        1 MOL      0.129476
     57 H21         7.1810    1.9320   -2.4250 h1        1 MOL      0.124993
     58 H22         5.1610    1.0140   -3.6360 hc        1 MOL      0.118296
     59 H23         5.3380    2.7940   -3.6660 hc        1 MOL      0.118296
     60 H24         2.9040    2.4080   -4.3440 hn        1 MOL      0.283020
     61 H25         1.7620    2.3180   -3.0920 hn        1 MOL      0.283020
     62 N7          6.3040    2.8770    0.4280 n         1 MOL     -0.081163
     63 C20         6.2640    3.7940    1.5040 c3        1 MOL     -0.160905
     64 C21         4.9870    4.6130    1.5650 c         1 MOL      0.511341
     65 O12         4.9390    5.6940    2.1890 o         1 MOL     -0.591030
     66 H26         6.4680    1.8780    0.5310 hn        1 MOL      0.133074
     67 H27         7.1250    4.4650    1.5350 h1        1 MOL      0.080105
     68 H28         6.2010    3.1360    2.3740 h1        1 MOL      0.080105
     69 N8          3.8580    4.1590    1.0040 n         1 MOL     -0.010468
     70 C22         2.5520    4.7400    1.2340 c3        1 MOL     -0.218152
     71 C23         1.5310    3.6440    1.5330 c         1 MOL      0.579872
     72 O13         1.7560    2.4660    1.2010 o         1 MOL     -0.563792
     73 C24         1.9540    5.4780    0.0590 c3        1 MOL      0.553536
     74 C25         2.7810    6.7700   -0.2320 c3        1 MOL     -0.375309
     75 O14         1.8900    4.6780   -1.1750 oh        1 MOL     -0.575308
     76 H29         3.9030    3.2970    0.4750 hn        1 MOL     -0.071728
     77 H30         2.5740    5.4720    2.0510 h1        1 MOL      0.085343
     78 H31         0.9320    5.7530    0.3270 h1        1 MOL     -0.043098
     79 H32         2.2120    3.7810   -1.0780 ho        1 MOL      0.153978
     80 H33         3.7110    6.6420   -0.7840 hc        1 MOL      0.082335
     81 H34         2.1620    7.3350   -0.9370 hc        1 MOL      0.082335
     82 H35         2.8170    7.4240    0.6360 hc        1 MOL      0.082335
     83 N9          0.4450    4.0260    2.2250 n         1 MOL     -0.589100
     84 C26        -0.7100    3.0870    2.3130 c3        1 MOL     -0.059290
     85 C27        -1.6600    3.2730    1.0690 c         1 MOL      0.733998
     86 O15        -2.2660    4.2910    0.9020 o         1 MOL     -0.619255
     87 C28        -1.4360    3.2270    3.6790 c3        1 MOL      0.069824
     88 C29        -0.5250    2.8670    4.8310 c3        1 MOL     -0.029147
     89 C30        -2.7630    2.2430    3.6650 c3        1 MOL     -0.177795
     90 C31        -1.0370    2.1330    5.9940 c3        1 MOL     -0.056641
     91 H36         0.2570    4.9680    2.5210 hn        1 MOL      0.336389
     92 H37        -0.3660    2.0530    2.3820 h1        1 MOL      0.153499
     93 H38        -1.7980    4.2490    3.7730 hc        1 MOL      0.014717
     94 H39        -0.0410    3.7850    5.1880 hc        1 MOL      0.014118
     95 H40         0.2400    2.1750    4.4940 hc        1 MOL      0.014118
     96 H41        -3.4860    2.5650    2.9160 hc        1 MOL      0.034005
     97 H42        -2.4260    1.2070    3.5550 hc        1 MOL      0.034005
     98 H43        -3.2620    2.3270    4.6280 hc        1 MOL      0.034005
     99 H44        -1.3630    1.0930    5.8460 hc        1 MOL      0.012008
    100 H45        -0.2240    2.0000    6.7070 hc        1 MOL      0.012008
    101 H46        -1.7100    2.6270    6.6930 hc        1 MOL      0.012008
    102 N10        -1.8100    2.2330    0.2620 n         1 MOL     -0.477895
    103 C32        -2.6420    2.2900   -0.9840 c3        1 MOL      0.081441
    104 C33        -4.0540    1.7510   -0.7270 c         1 MOL      0.508293
    105 O16        -4.2240    0.9670    0.1850 o         1 MOL     -0.412616
    106 C34        -1.9270    1.4220   -2.0710 c3        1 MOL     -0.320583
    107 C35        -0.4830    1.8210   -2.3670 c         1 MOL      0.804952
    108 O17         0.4950    1.5070   -1.6800 o         1 MOL     -0.697609
    109 O18        -0.3040    2.3560   -3.4970 o         1 MOL     -0.697609
    110 H47        -1.2510    1.4020    0.3980 hn        1 MOL      0.259999
    111 H48        -2.8280    3.2550   -1.4520 h1        1 MOL      0.064665
    112 H49        -2.4720    1.4140   -3.0230 hc        1 MOL      0.085049
    113 H50        -1.8940    0.4350   -1.6160 hc        1 MOL      0.085049
    114 N11        -5.0620    2.0870   -1.5350 n         1 MOL     -0.672353
    115 C36        -6.4840    1.6200   -1.1960 c3        1 MOL      0.414870
    116 C37        -6.6100    0.1060   -0.9410 c         1 MOL      0.301210
    117 O19        -7.2010   -0.2510    0.0780 o         1 MOL     -0.509297
    118 C38        -7.5000    2.1330   -2.2130 c3        1 MOL     -0.077337
    119 C39        -8.9190    1.7180   -2.0040 ca        1 MOL      0.088695
    120 C40        -9.6330    2.3810   -1.0070 ca        1 MOL     -0.176427
    121 C41        -9.5560    0.7180   -2.7150 ca        1 MOL     -0.176427
    122 C42       -10.9710    1.9880   -0.6950 ca        1 MOL     -0.112762
    123 C43       -10.9260    0.3580   -2.5090 ca        1 MOL     -0.112762
    124 C44       -11.6600    0.9840   -1.4710 ca        1 MOL     -0.106019
    125 H51        -4.9370    2.7090   -2.3190 hn        1 MOL      0.345447
    126 H52        -6.8560    2.1700   -0.3330 h1        1 MOL      0.017016
    127 H53        -7.1910    1.7850   -3.1970 hc        1 MOL      0.011120
    128 H54        -7.4610    3.2260   -2.2390 hc        1 MOL      0.011120
    129 H55        -9.1860    3.1800   -0.4350 ha        1 MOL      0.123469
    130 H56        -9.0830    0.1760   -3.5190 ha        1 MOL      0.123469
    131 H57       -11.4510    2.4600    0.1410 ha        1 MOL      0.112486
    132 H58       -11.4160   -0.3630   -3.1430 ha        1 MOL      0.112486
    133 H59       -12.7110    0.7700   -1.3880 ha        1 MOL      0.101683
    134 N12        -6.0720   -0.8000   -1.8170 n         1 MOL     -0.059086
    135 C45        -6.2370   -2.2530   -1.6190 c3        1 MOL      0.058598
    136 C46        -5.4190   -2.8410   -0.4230 c         1 MOL      0.300777
    137 O20        -5.5850   -4.0570   -0.1980 o         1 MOL     -0.525517
    138 C47        -5.8400   -2.9750   -2.9370 c3        1 MOL     -0.145562
    139 C48        -5.8610   -1.7780   -3.9980 c3        1 MOL     -0.043663
    140 C49        -5.4120   -0.5880   -3.0730 c3        1 MOL     -0.193057
    141 H60        -7.2550   -2.5480   -1.3590 h1        1 MOL      0.085323
    142 H61        -4.8060   -3.2850   -2.7560 hc        1 MOL      0.078136
    143 H62        -6.5360   -3.7850   -3.1680 hc        1 MOL      0.078136
    144 H63        -5.1880   -1.9410   -4.8410 hc        1 MOL      0.040549
    145 H64        -6.8860   -1.7630   -4.3680 hc        1 MOL      0.040549
    146 H65        -4.3620   -0.6160   -2.8000 h1        1 MOL      0.102024
    147 H66        -5.5620    0.3780   -3.5500 h1        1 MOL      0.102024
    148 N13        -4.6090   -2.0590    0.3150 n         1 MOL     -0.058264
    149 C50        -3.9540   -2.4350    1.5550 c3        1 MOL      0.038812
    150 C51        -4.6680   -1.9220    2.8210 c         1 MOL      0.378252
    151 O21        -5.0020   -2.7120    3.7360 o         1 MOL     -0.549443
    152 C52        -2.5480   -1.8760    1.7000 c3        1 MOL      0.163878
    153 C53        -1.7220   -2.0730    0.4360 c3        1 MOL     -0.146018
    154 C54        -0.3780   -1.3630    0.3730 c         1 MOL      0.626160
    155 O22         0.5570   -1.8940   -0.2230 o         1 MOL     -0.679012
    156 O23        -0.2520   -0.2910    0.8960 o         1 MOL     -0.679012
    157 H67        -4.5920   -1.1030   -0.0020 hn        1 MOL      0.090150
    158 H68        -3.8160   -3.5100    1.6770 h1        1 MOL      0.062206
    159 H69        -2.0730   -2.4090    2.5230 hc        1 MOL     -0.046581
    160 H70        -2.6250   -0.8100    1.9120 hc        1 MOL     -0.046581
    161 H71        -2.2330   -1.8260   -0.5020 hc        1 MOL      0.049600
    162 H72        -1.5450   -3.1520    0.4330 hc        1 MOL      0.049600
    163 N14        -5.2180   -0.7100    2.7650 n         1 MOL     -0.050082
    164 C55        -6.2590   -0.2040    3.6510 c3        1 MOL     -0.236078
    165 H73        -5.8430   -0.0470    4.6460 h1        1 MOL      0.090456
    166 H74        -6.6380    0.7420    3.2630 h1        1 MOL      0.090456
    167 H75        -7.0720   -0.9270    3.7070 h1        1 MOL      0.090456
    168 H76        -5.0070   -0.1660    1.9410 hn        1 MOL      0.100602
    169 Ca1         2.0800    0.1440   -0.0830 Ca        1 MOL      1.638788
    170 O24         1.9160   -0.1660    2.6540 oh        1 MOL     -0.808297
    171 H77         2.1050   -0.4890    3.5370 ho        1 MOL      0.387017
    172 H78         0.9570   -0.1500    2.6100 ho        1 MOL      0.387017
    173 O25         4.5950    0.6900    1.1540 oh        1 MOL     -0.808297
    174 H79         4.5310   -0.2560    1.0660 ho        1 MOL      0.387017
    175 H80         5.1990    0.8150    1.8810 ho        1 MOL      0.387017
@<TRIPOS>BOND
     1    1    2 1   
     2    1    4 1   
     3    1    5 1   
     4    1    6 1   
     5    2    3 2   
     6    2    7 1   
     7    7    8 1   
     8    7   15 1   
     9    8    9 1   
    10    8   11 1   
    11    8   16 1   
    12    9   10 2   
    13    9   19 1   
    14   11   12 1   
    15   11   17 1   
    16   11   18 1   
    17   12   13 1   
    18   12   14 1   
    19   19   20 1   
    20   19   24 1   
    21   20   21 1   
    22   20   23 1   
    23   20   25 1   
    24   21   22 2   
    25   21   29 1   
    26   23   26 1   
    27   23   27 1   
    28   23   28 1   
    29   29   30 1   
    30   29   37 1   
    31   30   31 1   
    32   30   33 1   
    33   30   38 1   
    34   31   32 2   
    35   31   41 1   
    36   33   34 1   
    37   33   39 1   
    38   33   40 1   
    39   34   35 1   
    40   34   36 1   
    41   41   42 1   
    42   41   45 1   
    43   42   43 1   
    44   42   46 1   
    45   42   47 1   
    46   43   44 2   
    47   43   48 1   
    48   48   49 1   
    49   48   56 1   
    50   49   50 1   
    51   49   52 1   
    52   49   57 1   
    53   50   51 2   
    54   50   62 1   
    55   52   53 1   
    56   52   58 1   
    57   52   59 1   
    58   53   54 1   
    59   53   55 2   
    60   54   60 1   
    61   54   61 1   
    62   62   63 1   
    63   62   66 1   
    64   63   64 1   
    65   63   67 1   
    66   63   68 1   
    67   64   65 2   
    68   64   69 1   
    69   69   70 1   
    70   69   76 1   
    71   70   71 1   
    72   70   73 1   
    73   70   77 1   
    74   71   72 2   
    75   71   83 1   
    76   73   74 1   
    77   73   75 1   
    78   73   78 1   
    79   74   80 1   
    80   74   81 1   
    81   74   82 1   
    82   75   79 1   
    83   83   84 1   
    84   83   91 1   
    85   84   85 1   
    86   84   87 1   
    87   84   92 1   
    88   85   86 2   
    89   85  102 1   
    90   87   88 1   
    91   87   89 1   
    92   87   93 1   
    93   88   90 1   
    94   88   94 1   
    95   88   95 1   
    96   89   96 1   
    97   89   97 1   
    98   89   98 1   
    99   90   99 1   
   100   90  100 1   
   101   90  101 1   
   102  102  103 1   
   103  102  110 1   
   104  103  104 1   
   105  103  106 1   
   106  103  111 1   
   107  104  105 2   
   108  104  114 1   
   109  106  107 1   
   110  106  112 1   
   111  106  113 1   
   112  107  108 1   
   113  107  109 1   
   114  114  115 1   
   115  114  125 1   
   116  115  116 1   
   117  115  118 1   
   118  115  126 1   
   119  116  117 2   
   120  116  134 1   
   121  118  119 1   
   122  118  127 1   
   123  118  128 1   
   124  119  120 ar  
   125  119  121 ar  
   126  120  122 ar  
   127  120  129 1   
   128  121  123 ar  
   129  121  130 1   
   130  122  124 ar  
   131  122  131 1   
   132  123  124 ar  
   133  123  132 1   
   134  124  133 1   
   135  134  135 1   
   136  134  140 1   
   137  135  136 1   
   138  135  138 1   
   139  135  141 1   
   140  136  137 2   
   141  136  148 1   
   142  138  139 1   
   143  138  142 1   
   144  138  143 1   
   145  139  140 1   
   146  139  144 1   
   147  139  145 1   
   148  140  146 1   
   149  140  147 1   
   150  148  149 1   
   151  148  157 1   
   152  149  150 1   
   153  149  152 1   
   154  149  158 1   
   155  150  151 2   
   156  150  163 1   
   157  152  153 1   
   158  152  159 1   
   159  152  160 1   
   160  153  154 1   
   161  153  161 1   
   162  153  162 1   
   163  154  155 1   
   164  154  156 1   
   165  163  164 1   
   166  163  168 1   
   167  164  165 1   
   168  164  166 1   
   169  164  167 1   
   170  170  171 1   
   171  170  172 1   
   172  173  174 1   
   173  173  175 1   
@<TRIPOS>SUBSTRUCTURE
     1 MOL         1 TEMP              0 ****  ****    0 ROOT
