@<TRIPOS>MOLECULE
MOL
  182   178     1     0     0
SMALL
resp


@<TRIPOS>ATOM
      1 C1          1.3870    2.9860    6.1430 c3        1 MOL     -0.351737
      2 C2          0.9400    2.6190    4.7540 c         1 MOL      0.753098
      3 O1          1.7470    2.8140    3.8160 o         1 MOL     -0.607237
      4 H1          0.6160    3.5860    6.6260 hc        1 MOL      0.092902
      5 H2          1.5570    2.0780    6.7220 hc        1 MOL      0.092902
      6 H3          2.3120    3.5600    6.0880 hc        1 MOL      0.092902
      7 N1         -0.3720    2.4140    4.4750 n         1 MOL     -0.633030
      8 C3         -0.9400    2.2220    3.1440 c3        1 MOL      0.233976
      9 C4         -1.0860    3.5320    2.3310 c         1 MOL      0.631918
     10 O2         -1.7670    4.4660    2.8150 o         1 MOL     -0.619630
     11 C5         -2.2260    1.3750    3.2270 c3        1 MOL     -0.222961
     12 C6         -2.8410    0.9700    1.8390 c         1 MOL      0.713353
     13 O3         -2.2880    1.3880    0.7680 o         1 MOL     -0.684367
     14 O4         -3.8830    0.2620    1.8490 o         1 MOL     -0.684367
     15 H4         -1.0340    2.1320    5.1890 hn        1 MOL      0.308480
     16 H5         -0.2390    1.6480    2.5440 h1        1 MOL     -0.062181
     17 H6         -2.9820    1.9420    3.7570 hc        1 MOL      0.067117
     18 H7         -2.1290    0.4600    3.8140 hc        1 MOL      0.067117
     19 N2         -0.5990    3.6770    1.1260 n         1 MOL     -0.452316
     20 C7         -0.5940    5.0140    0.3380 c3        1 MOL      0.025193
     21 C8         -1.7890    5.3440   -0.5510 c         1 MOL      0.412506
     22 O5         -2.0570    6.5490   -0.7220 o         1 MOL     -0.545880
     23 C9          0.7300    4.8200   -0.4490 c3        1 MOL     -0.153577
     24 C10         0.9590    5.9610   -1.4670 c3        1 MOL     -0.142953
     25 C11         0.9020    7.4020   -0.9550 c3        1 MOL     -0.065712
     26 C12         2.0600    7.8940   -0.0420 c3        1 MOL      0.047591
     27 N3          3.3750    8.0140   -0.7190 n4        1 MOL     -0.473019
     28 H8         -0.2800    2.8340    0.6900 hn        1 MOL      0.241393
     29 H9         -0.4560    5.8770    1.0020 h1        1 MOL      0.126490
     30 H10         0.5590    3.8980   -1.0170 hc        1 MOL      0.125714
     31 H11         1.5940    4.6360    0.1870 hc        1 MOL      0.125714
     32 H12         0.2000    5.9120   -2.2550 hc        1 MOL      0.038596
     33 H13         1.9180    5.8300   -1.9640 hc        1 MOL      0.038596
     34 H14         0.0270    7.5520   -0.3310 hc        1 MOL      0.069545
     35 H15         0.9020    8.0500   -1.8320 hc        1 MOL      0.069545
     36 H16         2.1450    7.1850    0.7870 hx        1 MOL      0.091988
     37 H17         1.7010    8.8320    0.3800 hx        1 MOL      0.091988
     38 H18         4.0900    8.2590   -0.0550 hn        1 MOL      0.356466
     39 H19         3.6460    7.0990   -1.0330 hn        1 MOL      0.356466
     40 H20         3.3420    8.6560   -1.5010 hn        1 MOL      0.356466
     41 N4         -2.5580    4.3340   -0.9480 n         1 MOL     -0.137724
     42 C13        -3.8330    4.4280   -1.6480 c3        1 MOL      0.019158
     43 C14        -5.1320    3.9840   -0.9070 c         1 MOL      0.362252
     44 O6         -6.2870    4.2610   -1.3010 o         1 MOL     -0.502660
     45 C15        -3.7800    3.9170   -3.0620 c3        1 MOL     -0.240983
     46 C16        -3.7920    2.4450   -3.1530 c         1 MOL      0.850732
     47 O7         -3.6400    1.7340   -2.1590 o         1 MOL     -0.755075
     48 O8         -3.8690    1.9160   -4.2920 o         1 MOL     -0.755075
     49 H21        -2.2480    3.4190   -0.6390 hn        1 MOL      0.169809
     50 H22        -3.9060    5.5160   -1.7190 h1        1 MOL      0.088216
     51 H23        -2.9580    4.3740   -3.6110 hc        1 MOL      0.065403
     52 H24        -4.7030    4.3150   -3.4790 hc        1 MOL      0.065403
     53 N5         -4.8900    3.4410    0.2440 n         1 MOL     -0.141346
     54 C17        -6.0380    2.9260    1.1130 c3        1 MOL     -0.317204
     55 C18        -6.7070    1.6190    0.5940 c         1 MOL      0.551879
     56 O9         -7.8070    1.2340    1.0590 o         1 MOL     -0.559480
     57 H25        -3.9360    3.2690    0.5350 hn        1 MOL      0.176275
     58 H26        -6.9270    3.5380    0.9730 h1        1 MOL      0.150481
     59 H27        -5.7600    2.8340    2.1680 h1        1 MOL      0.150481
     60 N6         -6.0500    0.8940   -0.3140 n         1 MOL     -0.291115
     61 C19        -6.5500   -0.3230   -1.0110 c3        1 MOL     -0.050928
     62 C20        -6.6200   -1.5650   -0.0830 c         1 MOL      0.343552
     63 O10        -7.3080   -2.5400   -0.4200 o         1 MOL     -0.510726
     64 C21        -5.7650   -0.5990   -2.2430 c3        1 MOL     -0.212513
     65 C22        -4.3470   -1.2370   -2.0580 c         1 MOL      0.531717
     66 N7         -3.9080   -1.7920   -3.1700 n         1 MOL     -0.807451
     67 O11        -3.5680   -1.0930   -1.1090 o         1 MOL     -0.028028
     68 H28        -5.1420    1.2410   -0.5760 hn        1 MOL      0.260976
     69 H29        -7.5910   -0.2970   -1.3240 h1        1 MOL      0.111896
     70 H30        -5.6540    0.3210   -2.8310 hc        1 MOL      0.096536
     71 H31        -6.3460   -1.2830   -2.8620 hc        1 MOL      0.096536
     72 H32        -4.5700   -1.7840   -3.9370 hn        1 MOL      0.360940
     73 H33        -2.9070   -1.8250   -3.2930 hn        1 MOL      0.360940
     74 N8         -5.8460   -1.5480    0.9730 n         1 MOL     -0.113386
     75 C23        -5.5700   -2.5810    1.9790 c3        1 MOL     -0.161055
     76 C24        -4.3010   -3.4220    1.8760 c         1 MOL      0.596534
     77 O12        -4.1820   -4.4080    2.5890 o         1 MOL     -0.605620
     78 H34        -5.3750   -0.6760    1.1850 hn        1 MOL      0.213869
     79 H35        -6.3830   -3.3020    2.0020 h1        1 MOL      0.094705
     80 H36        -5.5600   -2.1130    2.9660 h1        1 MOL      0.094705
     81 N9         -3.3560   -3.0510    1.0490 n         1 MOL     -0.064525
     82 C25        -2.0630   -3.7150    0.8630 c3        1 MOL      0.038606
     83 C26        -0.8870   -2.7110    0.8790 c         1 MOL      0.449170
     84 O13        -1.0520   -1.5000    0.6150 o         1 MOL     -0.602609
     85 C27        -2.0010   -4.5390   -0.4220 c3        1 MOL      0.204565
     86 C28        -3.0560   -5.5490   -0.4140 ca        1 MOL     -0.146740
     87 C29        -4.3420   -5.2130   -0.8530 ca        1 MOL     -0.095927
     88 C30        -2.7930   -6.7730    0.0520 ca        1 MOL     -0.095927
     89 C31        -5.4130   -6.0460   -0.5350 ca        1 MOL     -0.310222
     90 C32        -3.8200   -7.7330    0.3120 ca        1 MOL     -0.310222
     91 C33        -5.1790   -7.2910    0.0780 ca        1 MOL      0.424252
     92 O14        -6.2130   -8.1780    0.2610 oh        1 MOL     -0.466269
     93 H37        -3.5080   -2.1600    0.5870 hn        1 MOL     -0.150910
     94 H38        -1.8550   -4.4110    1.6780 h1        1 MOL      0.047274
     95 H39        -1.0040   -4.9650   -0.4660 hc        1 MOL     -0.047223
     96 H40        -2.1010   -3.9030   -1.2940 hc        1 MOL     -0.047223
     97 H41        -4.5700   -4.2540   -1.2880 ha        1 MOL      0.099286
     98 H42        -1.7640   -6.9230    0.3540 ha        1 MOL      0.099286
     99 H43        -6.4070   -5.6910   -0.7410 ha        1 MOL      0.158819
    100 H44        -3.5960   -8.7680    0.5030 ha        1 MOL      0.158819
    101 H45        -5.7860   -8.9970    0.5140 ho        1 MOL      0.324084
    102 N10         0.2870   -3.3020    1.1340 n         1 MOL     -0.478900
    103 C34         1.5250   -2.6230    1.1320 c3        1 MOL     -0.040010
    104 C35         2.4460   -3.4320    0.2530 c         1 MOL      0.650525
    105 O15         2.5110   -4.6060    0.2990 o         1 MOL     -0.582314
    106 C36         2.0580   -2.4220    2.5710 c3        1 MOL      0.001313
    107 C37         1.1710   -1.3230    3.2310 c3        1 MOL      0.263974
    108 C38         3.5470   -2.0750    2.7230 c3        1 MOL     -0.166690
    109 C39         1.2660   -1.2480    4.7390 c3        1 MOL     -0.303547
    110 H46         0.3940   -4.2470    1.4880 hn        1 MOL      0.330456
    111 H47         1.4210   -1.6690    0.6230 h1        1 MOL      0.115970
    112 H48         1.8070   -3.3070    3.1570 hc        1 MOL      0.020185
    113 H49         0.1140   -1.4230    2.9890 hc        1 MOL     -0.013882
    114 H50         1.3890   -0.3730    2.7340 hc        1 MOL     -0.013882
    115 H51         4.1410   -2.9320    2.4090 hc        1 MOL      0.036577
    116 H52         3.8190   -1.1470    2.2190 hc        1 MOL      0.036577
    117 H53         3.8540   -1.9760    3.7610 hc        1 MOL      0.036577
    118 H54         2.1970   -0.7450    5.0160 hc        1 MOL      0.062783
    119 H55         0.3730   -0.7060    5.0540 hc        1 MOL      0.062783
    120 H56         1.2430   -2.2280    5.1980 hc        1 MOL      0.062783
    121 N11         3.1610   -2.7750   -0.6190 n         1 MOL     -0.344705
    122 C40         4.2980   -3.3310   -1.3960 c3        1 MOL      0.113681
    123 C41         5.6480   -3.1290   -0.7170 c         1 MOL      0.390718
    124 O16         5.7250   -2.2670    0.1560 o         1 MOL     -0.370335
    125 C42         4.3030   -2.7360   -2.8010 c3        1 MOL     -0.341012
    126 O17         4.4790   -1.3690   -2.5370 oh        1 MOL     -0.281300
    127 H57         3.2120   -1.7780   -0.4960 hn        1 MOL      0.148923
    128 H58         4.2270   -4.4140   -1.4990 h1        1 MOL      0.073038
    129 H59         3.3130   -2.7430   -3.2680 h1        1 MOL      0.147134
    130 H60         5.1790   -3.0710   -3.3580 h1        1 MOL      0.147134
    131 H61         4.0100   -0.9310   -3.2490 ho        1 MOL      0.347798
    132 N12         6.6610   -3.8570   -1.1900 n         1 MOL     -0.384103
    133 C43         8.0150   -3.4940   -0.7080 c3        1 MOL      0.022856
    134 C44         8.4720   -2.1060   -1.0690 c         1 MOL      0.526989
    135 O18         9.4990   -1.5750   -0.6570 o         1 MOL     -0.536114
    136 C45         8.9730   -4.5740   -1.2600 c3        1 MOL     -0.333962
    137 H62         6.4200   -4.6200   -1.8110 hn        1 MOL      0.297409
    138 H63         8.0340   -3.5510    0.3800 h1        1 MOL      0.123407
    139 H64         9.0720   -4.4810   -2.3430 hc        1 MOL      0.112228
    140 H65         9.9890   -4.4330   -0.9020 hc        1 MOL      0.112228
    141 H66         8.6570   -5.5730   -0.9700 hc        1 MOL      0.112228
    142 N13         7.7190   -1.3520   -1.8760 n         1 MOL     -0.368841
    143 C46         7.9920    0.0580   -2.1050 c3        1 MOL      0.215600
    144 C47         7.3360    0.9270   -1.0510 c         1 MOL      0.296288
    145 O19         8.0180    1.7220   -0.3660 o         1 MOL     -0.532808
    146 C48         7.5070    0.4870   -3.5010 c3        1 MOL     -0.233337
    147 H67         6.9380   -1.7690   -2.3620 hn        1 MOL      0.196875
    148 H68         9.0680    0.2680   -2.1370 h1        1 MOL      0.082841
    149 H69         6.4520    0.7440   -3.4600 hc        1 MOL      0.053539
    150 H70         8.1040    1.3710   -3.7510 hc        1 MOL      0.053539
    151 H71         7.7590   -0.2680   -4.2410 hc        1 MOL      0.053539
    152 N14         6.0660    0.8020   -0.8070 n         1 MOL     -0.016899
    153 C49         5.3020    1.3860    0.2950 c3        1 MOL     -0.210626
    154 C50         5.9150    1.1070    1.6700 c         1 MOL      0.464236
    155 O20         5.7850    1.8760    2.6350 o         1 MOL     -0.550269
    156 C51         3.8310    0.8510    0.2990 c3        1 MOL      0.061321
    157 C52         3.0490    1.5440   -0.8600 c3        1 MOL     -0.305151
    158 C53         1.5820    1.1260   -0.9510 c         1 MOL      0.847588
    159 O21         0.7140    1.4160   -0.1120 o         1 MOL     -0.794385
    160 O22         1.2280    0.4250   -1.8900 o         1 MOL     -0.794385
    161 H72         5.6100    0.1430   -1.4210 hn        1 MOL      0.083948
    162 H73         5.2980    2.4630    0.1430 h1        1 MOL      0.122578
    163 H74         3.3290    1.1960    1.2010 hc        1 MOL      0.084505
    164 H75         3.8640   -0.2340    0.2250 hc        1 MOL      0.084505
    165 H76         3.5550    1.5200   -1.8190 hc        1 MOL      0.028811
    166 H77         3.0870    2.5600   -0.4750 hc        1 MOL      0.028811
    167 N15         6.6760   -0.0090    1.8330 n         1 MOL      0.042300
    168 C54         7.5220   -0.3710    2.9720 c3        1 MOL     -0.302341
    169 H78         7.0950    0.0410    3.8860 h1        1 MOL      0.111967
    170 H79         7.5770   -1.4570    3.0540 h1        1 MOL      0.111967
    171 H80         8.5230    0.0320    2.8250 h1        1 MOL      0.111967
    172 H81         6.4650   -0.6890    1.1170 hn        1 MOL      0.024630
    173 Ca1        -1.2390    0.2590   -1.2580 Ca        1 MOL      1.772331
    174 O23        -0.5460    2.5880   -2.7270 oh        1 MOL     -0.903673
    175 H82        -0.6370    3.4910   -2.9940 ho        1 MOL      0.417135
    176 H83        -0.1040    2.1540   -3.4560 ho        1 MOL      0.417135
    177 O24        -0.6360   -1.9200   -2.5160 oh        1 MOL     -0.903673
    178 H84        -0.9750   -2.2620   -3.3440 ho        1 MOL      0.417135
    179 H85         0.1520   -2.4310   -2.3510 ho        1 MOL      0.417135
    180 O25        -2.0810    0.0960   -4.0330 oh        1 MOL     -0.903673
    181 H86        -1.8740   -0.2950   -4.8790 ho        1 MOL      0.417135
    182 H87        -2.6540    0.8400   -4.2500 ho        1 MOL      0.417135
@<TRIPOS>BOND
     1    1    2 1   
     2    1    4 1   
     3    1    5 1   
     4    1    6 1   
     5    2    3 2   
     6    2    7 1   
     7    7    8 1   
     8    7   15 1   
     9    8    9 1   
    10    8   11 1   
    11    8   16 1   
    12    9   10 2   
    13    9   19 1   
    14   11   12 1   
    15   11   17 1   
    16   11   18 1   
    17   12   13 1   
    18   12   14 1   
    19   19   20 1   
    20   19   28 1   
    21   20   21 1   
    22   20   23 1   
    23   20   29 1   
    24   21   22 2   
    25   21   41 1   
    26   23   24 1   
    27   23   30 1   
    28   23   31 1   
    29   24   25 1   
    30   24   32 1   
    31   24   33 1   
    32   25   26 1   
    33   25   34 1   
    34   25   35 1   
    35   26   27 1   
    36   26   36 1   
    37   26   37 1   
    38   27   38 1   
    39   27   39 1   
    40   27   40 1   
    41   41   42 1   
    42   41   49 1   
    43   42   43 1   
    44   42   45 1   
    45   42   50 1   
    46   43   44 2   
    47   43   53 1   
    48   45   46 1   
    49   45   51 1   
    50   45   52 1   
    51   46   47 1   
    52   46   48 1   
    53   53   54 1   
    54   53   57 1   
    55   54   55 1   
    56   54   58 1   
    57   54   59 1   
    58   55   56 2   
    59   55   60 1   
    60   60   61 1   
    61   60   68 1   
    62   61   62 1   
    63   61   64 1   
    64   61   69 1   
    65   62   63 2   
    66   62   74 1   
    67   64   65 1   
    68   64   70 1   
    69   64   71 1   
    70   65   66 1   
    71   65   67 2   
    72   66   72 1   
    73   66   73 1   
    74   74   75 1   
    75   74   78 1   
    76   75   76 1   
    77   75   79 1   
    78   75   80 1   
    79   76   77 2   
    80   76   81 1   
    81   81   82 1   
    82   81   93 1   
    83   82   83 1   
    84   82   85 1   
    85   82   94 1   
    86   83   84 2   
    87   83  102 1   
    88   85   86 1   
    89   85   95 1   
    90   85   96 1   
    91   86   87 ar  
    92   86   88 ar  
    93   87   89 ar  
    94   87   97 1   
    95   88   90 ar  
    96   88   98 1   
    97   89   91 ar  
    98   89   99 1   
    99   90   91 ar  
   100   90  100 1   
   101   91   92 1   
   102   92  101 1   
   103  102  103 1   
   104  102  110 1   
   105  103  104 1   
   106  103  106 1   
   107  103  111 1   
   108  104  105 2   
   109  104  121 1   
   110  106  107 1   
   111  106  108 1   
   112  106  112 1   
   113  107  109 1   
   114  107  113 1   
   115  107  114 1   
   116  108  115 1   
   117  108  116 1   
   118  108  117 1   
   119  109  118 1   
   120  109  119 1   
   121  109  120 1   
   122  121  122 1   
   123  121  127 1   
   124  122  123 1   
   125  122  125 1   
   126  122  128 1   
   127  123  124 2   
   128  123  132 1   
   129  125  126 1   
   130  125  129 1   
   131  125  130 1   
   132  126  131 1   
   133  132  133 1   
   134  132  137 1   
   135  133  134 1   
   136  133  136 1   
   137  133  138 1   
   138  134  135 2   
   139  134  142 1   
   140  136  139 1   
   141  136  140 1   
   142  136  141 1   
   143  142  143 1   
   144  142  147 1   
   145  143  144 1   
   146  143  146 1   
   147  143  148 1   
   148  144  145 2   
   149  144  152 1   
   150  146  149 1   
   151  146  150 1   
   152  146  151 1   
   153  152  153 1   
   154  152  161 1   
   155  153  154 1   
   156  153  156 1   
   157  153  162 1   
   158  154  155 2   
   159  154  167 1   
   160  156  157 1   
   161  156  163 1   
   162  156  164 1   
   163  157  158 1   
   164  157  165 1   
   165  157  166 1   
   166  158  159 1   
   167  158  160 1   
   168  167  168 1   
   169  167  172 1   
   170  168  169 1   
   171  168  170 1   
   172  168  171 1   
   173  174  175 1   
   174  174  176 1   
   175  177  178 1   
   176  177  179 1   
   177  180  181 1   
   178  180  182 1   
@<TRIPOS>SUBSTRUCTURE
     1 MOL         1 TEMP              0 ****  ****    0 ROOT
