@<TRIPOS>MOLECULE
MOL
  175   173     1     0     0
SMALL
resp


@<TRIPOS>ATOM
      1 C1          0.4580    3.8760    5.8030 c3        1 MOL     -0.425296
      2 C2          0.0260    3.8790    4.3510 c         1 MOL      0.779307
      3 O1          0.8770    3.7780    3.4840 o         1 MOL     -0.552895
      4 H1          1.4890    3.5290    5.8740 hc        1 MOL      0.101075
      5 H2          0.3860    4.8860    6.2060 hc        1 MOL      0.101075
      6 H3         -0.1880    3.2100    6.3740 hc        1 MOL      0.101075
      7 N1         -1.2830    4.0100    4.0320 n         1 MOL     -0.739213
      8 C3         -1.8100    3.6030    2.7070 c3        1 MOL      0.283421
      9 C4         -1.7700    4.8110    1.7220 c         1 MOL      0.542548
     10 O2         -1.9010    5.9660    2.0770 o         1 MOL     -0.564822
     11 C5         -3.1920    2.9510    2.9010 c3        1 MOL     -0.239707
     12 C6         -3.8720    2.6950    1.5390 c         1 MOL      0.683344
     13 O3         -4.8840    3.2980    1.3380 o         1 MOL     -0.632637
     14 O4         -3.4580    1.8850    0.6280 o         1 MOL     -0.632637
     15 H4         -1.9430    4.1610    4.7830 hn        1 MOL      0.345782
     16 H5         -1.1700    2.8080    2.3310 h1        1 MOL      0.014991
     17 H6         -3.7660    3.6210    3.5420 hc        1 MOL      0.022995
     18 H7         -3.0260    2.0320    3.4800 hc        1 MOL      0.022995
     19 N2         -1.6210    4.4910    0.4420 n         1 MOL     -0.401465
     20 C7         -1.8090    5.4470   -0.6550 c3        1 MOL      0.222396
     21 C8         -2.7540    5.0900   -1.8590 c         1 MOL      0.581601
     22 O5         -2.8240    5.8060   -2.8180 o         1 MOL     -0.601857
     23 C9         -0.4300    5.9850   -1.0800 c3        1 MOL     -0.156636
     24 H8         -1.2720    3.5710    0.1930 hn        1 MOL      0.205760
     25 H9         -2.3990    6.2860   -0.2860 h1        1 MOL      0.004918
     26 H10         0.1750    5.1090   -1.3040 hc        1 MOL      0.029510
     27 H11        -0.4450    6.6530   -1.9380 hc        1 MOL      0.029510
     28 H12         0.0430    6.5620   -0.2930 hc        1 MOL      0.029510
     29 N3         -3.3940    3.9500   -1.8530 n         1 MOL     -0.526113
     30 C10        -4.2410    3.5290   -2.9950 c3        1 MOL      0.350519
     31 C11        -5.5740    2.9080   -2.6310 c         1 MOL      0.243173
     32 O6         -6.4820    2.8500   -3.4830 o         1 MOL     -0.554506
     33 C12        -3.4290    2.4540   -3.7730 c3        1 MOL     -0.341218
     34 C13        -3.0140    1.2220   -2.9500 c         1 MOL      0.848449
     35 O7         -1.7960    0.9100   -2.7750 o         1 MOL     -0.772896
     36 O8         -3.8750    0.5440   -2.3180 o         1 MOL     -0.772896
     37 H13        -3.1730    3.2530   -1.1580 hn        1 MOL      0.265075
     38 H14        -4.4820    4.3350   -3.6930 h1        1 MOL      0.045450
     39 H15        -2.5700    2.9700   -4.2030 hc        1 MOL      0.071567
     40 H16        -4.1180    2.1400   -4.5590 hc        1 MOL      0.071567
     41 N4         -5.7480    2.4400   -1.3910 n         1 MOL      0.044419
     42 C14        -7.0330    1.9530   -0.7880 c3        1 MOL     -0.294704
     43 C15        -7.2800    0.4380   -0.8440 c         1 MOL      0.511175
     44 O9         -8.4420   -0.0070   -0.6170 o         1 MOL     -0.620441
     45 H17        -4.9970    2.5370   -0.7280 hn        1 MOL      0.009947
     46 H18        -7.8640    2.2250   -1.4390 h1        1 MOL      0.136576
     47 H19        -7.2260    2.2630    0.2390 h1        1 MOL      0.136576
     48 N5         -6.3520   -0.3810   -1.4070 n         1 MOL     -0.090542
     49 C16        -6.6000   -1.7780   -1.8860 c3        1 MOL     -0.058970
     50 C17        -6.7990   -2.8730   -0.8380 c         1 MOL      0.472494
     51 O10        -7.1690   -4.0060   -1.1790 o         1 MOL     -0.554270
     52 C18        -5.4740   -2.1800   -2.8690 c3        1 MOL     -0.254043
     53 C19        -4.0550   -2.3490   -2.3490 c         1 MOL      0.668109
     54 N6         -3.0600   -2.4060   -3.1670 n         1 MOL     -0.722282
     55 O11        -3.8180   -2.2660   -1.1710 o         1 MOL     -0.315836
     56 H20        -5.3950   -0.0770   -1.5490 hn        1 MOL      0.125649
     57 H21        -7.5290   -1.7420   -2.4690 h1        1 MOL      0.107873
     58 H22        -5.3560   -1.4330   -3.6560 hc        1 MOL      0.073993
     59 H23        -5.7230   -3.1430   -3.3070 hc        1 MOL      0.073993
     60 H24        -3.1430   -2.3860   -4.1800 hn        1 MOL      0.341131
     61 H25        -2.1320   -2.3280   -2.7750 hn        1 MOL      0.341131
     62 N7         -6.5370   -2.5920    0.4340 n         1 MOL     -0.274537
     63 C20        -6.5980   -3.5330    1.5780 c3        1 MOL     -0.135815
     64 C21        -5.2670   -4.2520    1.9000 c         1 MOL      0.440586
     65 O12        -5.3920   -5.1310    2.7430 o         1 MOL     -0.561078
     66 H26        -6.2220   -1.6470    0.6240 hn        1 MOL      0.201517
     67 H27        -7.4180   -4.2240    1.4360 h1        1 MOL      0.103326
     68 H28        -6.8810   -2.9440    2.4420 h1        1 MOL      0.103326
     69 N8         -4.1350   -3.9780    1.2290 n         1 MOL      0.053315
     70 C22        -2.8020   -4.6230    1.4520 c3        1 MOL     -0.362501
     71 C23        -1.7320   -3.5420    1.4190 c         1 MOL      0.643102
     72 O13        -1.9260   -2.4930    0.7820 o         1 MOL     -0.596054
     73 C24        -2.3800   -5.6270    0.3130 c3        1 MOL      0.513132
     74 C25        -3.4270   -6.7390    0.0620 c3        1 MOL     -0.448965
     75 O14        -2.2880   -4.9450   -0.9150 oh        1 MOL     -0.524702
     76 H29        -4.1190   -3.1540    0.6440 hn        1 MOL     -0.022185
     77 H30        -2.8120   -5.1890    2.3850 h1        1 MOL      0.102053
     78 H31        -1.3830   -5.9690    0.5990 h1        1 MOL     -0.035212
     79 H32        -2.6960   -4.0890   -0.7440 ho        1 MOL      0.189017
     80 H33        -3.2170   -7.3220   -0.8410 hc        1 MOL      0.110275
     81 H34        -3.5520   -7.5200    0.8120 hc        1 MOL      0.110275
     82 H35        -4.3910   -6.2760   -0.1700 hc        1 MOL      0.110275
     83 N9         -0.6200   -3.7320    2.1210 n         1 MOL     -0.378059
     84 C26         0.5460   -2.8610    2.0340 c3        1 MOL      0.000556
     85 C27         1.3950   -3.1370    0.8050 c         1 MOL      0.646931
     86 O15         1.8500   -4.2620    0.5920 o         1 MOL     -0.600653
     87 C28         1.4140   -2.8960    3.3500 c3        1 MOL     -0.006461
     88 C29         0.6860   -1.9830    4.3930 c3        1 MOL      0.232481
     89 C30         2.8370   -2.2070    3.1030 c3        1 MOL     -0.149558
     90 C31         1.3570   -1.9850    5.7560 c3        1 MOL     -0.173367
     91 H36        -0.5570   -4.5840    2.6740 hn        1 MOL      0.268576
     92 H37         0.2240   -1.8360    1.8870 h1        1 MOL     -0.079507
     93 H38         1.5330   -3.9420    3.6630 hc        1 MOL      0.028415
     94 H39        -0.2990   -2.4350    4.4380 hc        1 MOL     -0.055967
     95 H40         0.5450   -0.9470    4.0760 hc        1 MOL     -0.055967
     96 H41         2.7210   -1.1600    2.8200 hc        1 MOL      0.034766
     97 H42         3.4140   -2.1520    4.0310 hc        1 MOL      0.034766
     98 H43         3.4430   -2.7220    2.3550 hc        1 MOL      0.034766
     99 H44         1.4310   -3.0220    6.0540 hc        1 MOL      0.025376
    100 H45         2.3000   -1.4310    5.7840 hc        1 MOL      0.025376
    101 H46         0.6490   -1.4930    6.4200 hc        1 MOL      0.025376
    102 N10         1.6520   -2.0480   -0.0010 n         1 MOL     -0.413583
    103 C32         2.5350   -2.1560   -1.2170 c3        1 MOL      0.127188
    104 C33         3.9680   -1.6200   -0.8890 c         1 MOL      0.315293
    105 O16         4.1350   -0.9920    0.1990 o         1 MOL     -0.247231
    106 C34         1.9560   -1.2680   -2.3010 c3        1 MOL     -0.190937
    107 C35         0.4930   -1.7200   -2.6910 c         1 MOL      0.670738
    108 O17        -0.5230   -1.5310   -1.8710 o         1 MOL     -0.629852
    109 O18         0.3180   -2.3140   -3.7130 o         1 MOL     -0.629852
    110 H47         1.2290   -1.1760    0.2750 hn        1 MOL      0.177014
    111 H48         2.5920   -3.1200   -1.7120 h1        1 MOL      0.082920
    112 H49         2.5880   -1.2920   -3.1900 hc        1 MOL      0.052619
    113 H50         1.9230   -0.2390   -1.9640 hc        1 MOL      0.052619
    114 N11         5.0660   -1.8420   -1.6840 n         1 MOL     -0.647313
    115 C36         6.4260   -1.6420   -1.2810 c3        1 MOL      0.429427
    116 C37         6.6790   -0.1550   -0.9700 c         1 MOL      0.299725
    117 O19         7.2460    0.1830    0.0410 o         1 MOL     -0.504524
    118 C38         7.5030   -2.2040   -2.3200 c3        1 MOL     -0.279955
    119 C39         8.9660   -2.0510   -1.8430 ca        1 MOL      0.234775
    120 C40         9.4050   -2.6040   -0.6270 ca        1 MOL     -0.274309
    121 C41         9.8620   -1.3960   -2.6830 ca        1 MOL     -0.274309
    122 C42        10.7590   -2.3770   -0.1820 ca        1 MOL      0.025798
    123 C43        11.1740   -1.2860   -2.3270 ca        1 MOL      0.025798
    124 C44        11.6480   -1.7420   -1.0630 ca        1 MOL     -0.276664
    125 H51         4.8940   -2.3240   -2.5540 hn        1 MOL      0.333771
    126 H52         6.6480   -2.2380   -0.3940 h1        1 MOL      0.037168
    127 H53         7.3390   -1.6970   -3.2700 hc        1 MOL      0.066990
    128 H54         7.3520   -3.2660   -2.4860 hc        1 MOL      0.066990
    129 H55         8.7100   -3.0690    0.0440 ha        1 MOL      0.135997
    130 H56         9.5540   -1.1020   -3.6780 ha        1 MOL      0.135997
    131 H57        10.9990   -2.8110    0.7750 ha        1 MOL      0.082878
    132 H58        11.8990   -0.8890   -3.0350 ha        1 MOL      0.082878
    133 H59        12.6190   -1.6000   -0.6100 ha        1 MOL      0.140398
    134 N12         6.1990    0.7970   -1.8070 n         1 MOL      0.014814
    135 C45         6.3030    2.2610   -1.6480 c3        1 MOL     -0.125421
    136 C46         5.5370    2.7920   -0.3950 c         1 MOL      0.391197
    137 O20         5.7160    3.8850    0.0720 o         1 MOL     -0.526072
    138 C47         5.7040    2.9270   -2.9250 c3        1 MOL      0.000167
    139 C48         5.8940    1.8180   -3.9580 c3        1 MOL     -0.017400
    140 C49         5.6600    0.5660   -3.1330 c3        1 MOL     -0.082929
    141 H60         7.3550    2.5190   -1.6130 h1        1 MOL      0.100001
    142 H61         4.6670    3.2230   -2.7870 hc        1 MOL      0.044928
    143 H62         6.2610    3.7830   -3.3260 hc        1 MOL      0.044928
    144 H63         5.1740    1.9230   -4.7680 hc        1 MOL      0.013576
    145 H64         6.9140    1.8260   -4.3360 hc        1 MOL      0.013576
    146 H65         4.5860    0.4110   -3.0630 h1        1 MOL      0.050202
    147 H66         6.0660   -0.2990   -3.6560 h1        1 MOL      0.050202
    148 N13         4.6440    1.9770    0.1070 n         1 MOL     -0.166719
    149 C50         3.9950    2.1760    1.4390 c3        1 MOL     -0.143432
    150 C51         4.8710    1.6180    2.6350 c         1 MOL      0.494833
    151 O21         4.8550    2.2430    3.6980 o         1 MOL     -0.568434
    152 C52         2.5590    1.6070    1.4960 c3        1 MOL      0.001452
    153 C53         1.5850    2.1890    0.4240 c3        1 MOL     -0.064230
    154 C54         0.2790    1.4460    0.3960 c         1 MOL      0.465231
    155 O22         0.2370    0.2950    0.8780 o         1 MOL     -0.558497
    156 O23        -0.7260    1.9500   -0.1140 o         1 MOL     -0.558497
    157 H67         4.5100    1.0470   -0.2660 hn        1 MOL      0.115692
    158 H68         3.9170    3.2480    1.6310 h1        1 MOL      0.133472
    159 H69         2.1770    1.8500    2.4820 hc        1 MOL      0.052422
    160 H70         2.5650    0.5210    1.4210 hc        1 MOL      0.052422
    161 H71         1.9890    2.0720   -0.5870 hc        1 MOL      0.046473
    162 H72         1.4840    3.2330    0.7250 hc        1 MOL      0.046473
    163 N14         5.4650    0.4430    2.4760 n         1 MOL     -0.000758
    164 C55         6.4300   -0.0720    3.4540 c3        1 MOL     -0.275504
    165 H73         6.6610   -1.1110    3.2230 h1        1 MOL      0.092683
    166 H74         7.3430    0.5210    3.4120 h1        1 MOL      0.092683
    167 H75         6.0020   -0.0100    4.4540 h1        1 MOL      0.092683
    168 H76         5.3730   -0.1680    1.6800 hn        1 MOL      0.045110
    169 Ca1        -2.0950   -0.1750   -0.3380 Ca        1 MOL      1.622402
    170 O24        -4.3570   -0.7220    1.5080 oh        1 MOL     -0.769319
    171 H77        -3.7290   -0.6880    2.2300 ho        1 MOL      0.387164
    172 H78        -5.1720   -0.3730    1.8830 ho        1 MOL      0.387164
    173 O25        -1.8620   -0.2240    2.6590 oh        1 MOL     -0.769319
    174 H79        -0.9730    0.0600    2.4360 ho        1 MOL      0.387164
    175 H80        -1.9200   -0.0930    3.6070 ho        1 MOL      0.387164
@<TRIPOS>BOND
     1    1    2 1   
     2    1    4 1   
     3    1    5 1   
     4    1    6 1   
     5    2    3 2   
     6    2    7 1   
     7    7    8 1   
     8    7   15 1   
     9    8    9 1   
    10    8   11 1   
    11    8   16 1   
    12    9   10 2   
    13    9   19 1   
    14   11   12 1   
    15   11   17 1   
    16   11   18 1   
    17   12   13 1   
    18   12   14 1   
    19   19   20 1   
    20   19   24 1   
    21   20   21 1   
    22   20   23 1   
    23   20   25 1   
    24   21   22 2   
    25   21   29 1   
    26   23   26 1   
    27   23   27 1   
    28   23   28 1   
    29   29   30 1   
    30   29   37 1   
    31   30   31 1   
    32   30   33 1   
    33   30   38 1   
    34   31   32 2   
    35   31   41 1   
    36   33   34 1   
    37   33   39 1   
    38   33   40 1   
    39   34   35 1   
    40   34   36 1   
    41   41   42 1   
    42   41   45 1   
    43   42   43 1   
    44   42   46 1   
    45   42   47 1   
    46   43   44 2   
    47   43   48 1   
    48   48   49 1   
    49   48   56 1   
    50   49   50 1   
    51   49   52 1   
    52   49   57 1   
    53   50   51 2   
    54   50   62 1   
    55   52   53 1   
    56   52   58 1   
    57   52   59 1   
    58   53   54 1   
    59   53   55 2   
    60   54   60 1   
    61   54   61 1   
    62   62   63 1   
    63   62   66 1   
    64   63   64 1   
    65   63   67 1   
    66   63   68 1   
    67   64   65 2   
    68   64   69 1   
    69   69   70 1   
    70   69   76 1   
    71   70   71 1   
    72   70   73 1   
    73   70   77 1   
    74   71   72 2   
    75   71   83 1   
    76   73   74 1   
    77   73   75 1   
    78   73   78 1   
    79   74   80 1   
    80   74   81 1   
    81   74   82 1   
    82   75   79 1   
    83   83   84 1   
    84   83   91 1   
    85   84   85 1   
    86   84   87 1   
    87   84   92 1   
    88   85   86 2   
    89   85  102 1   
    90   87   88 1   
    91   87   89 1   
    92   87   93 1   
    93   88   90 1   
    94   88   94 1   
    95   88   95 1   
    96   89   96 1   
    97   89   97 1   
    98   89   98 1   
    99   90   99 1   
   100   90  100 1   
   101   90  101 1   
   102  102  103 1   
   103  102  110 1   
   104  103  104 1   
   105  103  106 1   
   106  103  111 1   
   107  104  105 2   
   108  104  114 1   
   109  106  107 1   
   110  106  112 1   
   111  106  113 1   
   112  107  108 1   
   113  107  109 1   
   114  114  115 1   
   115  114  125 1   
   116  115  116 1   
   117  115  118 1   
   118  115  126 1   
   119  116  117 2   
   120  116  134 1   
   121  118  119 1   
   122  118  127 1   
   123  118  128 1   
   124  119  120 ar  
   125  119  121 ar  
   126  120  122 ar  
   127  120  129 1   
   128  121  123 ar  
   129  121  130 1   
   130  122  124 ar  
   131  122  131 1   
   132  123  124 ar  
   133  123  132 1   
   134  124  133 1   
   135  134  135 1   
   136  134  140 1   
   137  135  136 1   
   138  135  138 1   
   139  135  141 1   
   140  136  137 2   
   141  136  148 1   
   142  138  139 1   
   143  138  142 1   
   144  138  143 1   
   145  139  140 1   
   146  139  144 1   
   147  139  145 1   
   148  140  146 1   
   149  140  147 1   
   150  148  149 1   
   151  148  157 1   
   152  149  150 1   
   153  149  152 1   
   154  149  158 1   
   155  150  151 2   
   156  150  163 1   
   157  152  153 1   
   158  152  159 1   
   159  152  160 1   
   160  153  154 1   
   161  153  161 1   
   162  153  162 1   
   163  154  155 1   
   164  154  156 1   
   165  163  164 1   
   166  163  168 1   
   167  164  165 1   
   168  164  166 1   
   169  164  167 1   
   170  170  171 1   
   171  170  172 1   
   172  173  174 1   
   173  173  175 1   
@<TRIPOS>SUBSTRUCTURE
     1 MOL         1 TEMP              0 ****  ****    0 ROOT
