@<TRIPOS>MOLECULE
MOL
  172   171     1     0     0
SMALL
resp


@<TRIPOS>ATOM
      1 C1          0.0540    4.0920    5.6310 c3        1 MOL     -0.358894
      2 C2         -0.5530    3.9760    4.2000 c         1 MOL      0.746363
      3 O1          0.1980    4.1800    3.2770 o         1 MOL     -0.567878
      4 H1         -0.5970    4.7080    6.2520 hc        1 MOL      0.081489
      5 H2          0.1410    3.0990    6.0710 hc        1 MOL      0.081489
      6 H3          1.0410    4.5520    5.5720 hc        1 MOL      0.081489
      7 N1         -1.8030    3.6880    3.9820 n         1 MOL     -0.545277
      8 C3         -2.3830    3.4180    2.7070 c3        1 MOL      0.260007
      9 C4         -2.3810    4.6600    1.7210 c         1 MOL      0.371238
     10 O2         -2.6960    5.7450    2.2260 o         1 MOL     -0.550900
     11 C5         -3.8320    2.8820    2.9380 c3        1 MOL     -0.257765
     12 C6         -4.3960    2.6760    1.5010 c         1 MOL      0.737020
     13 O3         -3.9230    1.6760    0.8680 o         1 MOL     -0.714273
     14 O4         -5.2690    3.4350    1.0030 o         1 MOL     -0.714273
     15 H4         -2.3940    3.6710    4.8120 hn        1 MOL      0.271626
     16 H5         -1.7870    2.6530    2.2130 h1        1 MOL     -0.060002
     17 H6         -4.4760    3.5610    3.5000 hc        1 MOL      0.045646
     18 H7         -3.8800    1.8760    3.3600 hc        1 MOL      0.045646
     19 N2         -2.2130    4.4610    0.4090 n         1 MOL     -0.173975
     20 C7         -2.4940    5.5040   -0.6330 c3        1 MOL      0.308275
     21 C8         -3.2550    4.9200   -1.8220 c         1 MOL      0.494258
     22 O5         -2.9580    5.1930   -3.0210 o         1 MOL     -0.558984
     23 C9         -1.2280    6.2680   -1.0240 c3        1 MOL     -0.361395
     24 H8         -1.8510    3.5660    0.1100 hn        1 MOL      0.163543
     25 H9         -3.1710    6.2310   -0.1990 h1        1 MOL      0.001703
     26 H10        -0.7420    6.5520   -0.0940 hc        1 MOL      0.080272
     27 H11        -0.5400    5.5900   -1.5290 hc        1 MOL      0.080272
     28 H12        -1.4690    7.1180   -1.6700 hc        1 MOL      0.080272
     29 N3         -4.2650    4.0750   -1.6160 n         1 MOL     -0.486025
     30 C10        -5.0080    3.2730   -2.6970 c3        1 MOL      0.046650
     31 C11        -6.2450    2.4030   -2.3070 c         1 MOL      0.320016
     32 O6         -7.1030    2.0780   -3.1380 o         1 MOL     -0.545432
     33 C12        -4.1030    2.3810   -3.5520 c3        1 MOL     -0.063615
     34 C13        -3.3400    1.3260   -2.7350 c         1 MOL      0.757226
     35 O7         -3.8930    0.6480   -1.9010 o         1 MOL     -0.712712
     36 O8         -2.1600    1.0700   -3.0780 o         1 MOL     -0.712712
     37 H13        -4.4980    3.8620   -0.6510 hn        1 MOL      0.232254
     38 H14        -5.3970    4.0700   -3.3390 h1        1 MOL      0.072896
     39 H15        -3.4460    3.1040   -4.0180 hc        1 MOL      0.022395
     40 H16        -4.6410    1.9030   -4.3700 hc        1 MOL      0.022395
     41 N4         -6.3560    2.0160   -1.0450 n         1 MOL      0.008427
     42 C14        -7.5010    1.2590   -0.6040 c3        1 MOL     -0.431145
     43 C15        -7.5400   -0.1600   -1.1310 c         1 MOL      0.624657
     44 O9         -8.6060   -0.7280   -1.1590 o         1 MOL     -0.632859
     45 H17        -5.6460    2.3380   -0.4020 hn        1 MOL      0.255661
     46 H18        -8.3970    1.7480   -0.9640 h1        1 MOL      0.144825
     47 H19        -7.4270    1.1600    0.4810 h1        1 MOL      0.144825
     48 N5         -6.4530   -0.7730   -1.5520 n         1 MOL     -0.119161
     49 C16        -6.3290   -2.1240   -2.0700 c3        1 MOL     -0.039553
     50 C17        -6.2450   -3.1920   -1.0260 c         1 MOL      0.444467
     51 O10        -6.0680   -4.3990   -1.3900 o         1 MOL     -0.543907
     52 C18        -5.1320   -2.1190   -3.0060 c3        1 MOL     -0.212485
     53 C19        -3.7240   -2.2530   -2.5160 c         1 MOL      0.517710
     54 N6         -2.8000   -2.5470   -3.3960 n         1 MOL     -0.466076
     55 O11        -3.3570   -2.2030   -1.3350 o         1 MOL     -0.616208
     56 H20        -5.6190   -0.2010   -1.5230 hn        1 MOL      0.054938
     57 H21        -7.3030   -2.3460   -2.5030 h1        1 MOL      0.112556
     58 H22        -5.1410   -1.2690   -3.6880 hc        1 MOL      0.090336
     59 H23        -5.3160   -3.0120   -3.6080 hc        1 MOL      0.090336
     60 H24        -3.0610   -2.6710   -4.3620 hn        1 MOL      0.290495
     61 H25        -1.8700   -2.7890   -3.0730 hn        1 MOL      0.290495
     62 N7         -6.2170   -2.9130    0.2370 n         1 MOL     -0.308479
     63 C20        -6.1260   -3.9000    1.3250 c3        1 MOL     -0.183716
     64 C21        -4.8040   -4.5370    1.6910 c         1 MOL      0.442172
     65 O12        -4.9320   -5.4970    2.5440 o         1 MOL     -0.573847
     66 H26        -6.4620   -1.9450    0.4360 hn        1 MOL      0.273242
     67 H27        -6.9030   -4.6640    1.2550 h1        1 MOL      0.118508
     68 H28        -6.3920   -3.3230    2.2190 h1        1 MOL      0.118508
     69 N8         -3.7040   -4.0880    1.1460 n         1 MOL     -0.112863
     70 C22        -2.4310   -4.6360    1.3080 c3        1 MOL     -0.131007
     71 C23        -1.4080   -3.5520    1.5990 c         1 MOL      0.504689
     72 O13        -1.6060   -2.4000    1.2300 o         1 MOL     -0.624948
     73 C24        -1.8250   -5.4710    0.1250 c3        1 MOL      0.628015
     74 C25        -2.5130   -6.8050   -0.1060 c3        1 MOL     -0.330013
     75 O14        -1.7500   -4.8370   -1.1130 oh        1 MOL     -0.625404
     76 H29        -3.7550   -3.3750    0.4380 hn        1 MOL      0.262296
     77 H30        -2.3740   -5.2250    2.2210 h1        1 MOL      0.063757
     78 H31        -0.7970   -5.6690    0.4270 h1        1 MOL     -0.029971
     79 H32        -2.3670   -4.0980   -1.0690 ho        1 MOL      0.335709
     80 H33        -1.9010   -7.4050   -0.7850 hc        1 MOL      0.054382
     81 H34        -2.3200   -7.1550    0.9130 hc        1 MOL      0.054382
     82 H35        -3.5680   -6.7280   -0.3450 hc        1 MOL      0.054382
     83 N9         -0.2410   -3.7680    2.2790 n         1 MOL     -0.428221
     84 C26         0.8680   -2.8440    2.3570 c3        1 MOL     -0.010610
     85 C27         1.7170   -3.0350    1.1070 c         1 MOL      0.427558
     86 O15         2.2370   -4.1050    0.8360 o         1 MOL     -0.602461
     87 C28         1.6430   -2.9240    3.7030 c3        1 MOL      0.374451
     88 C29         0.6450   -2.8320    4.9170 c3        1 MOL      0.204933
     89 C30         2.7890   -1.8680    3.8130 c3        1 MOL     -0.483078
     90 C31         1.3160   -2.9100    6.3540 c3        1 MOL     -0.277869
     91 H36         0.0500   -4.7160    2.4470 hn        1 MOL      0.232237
     92 H37         0.4390   -1.8450    2.3150 h1        1 MOL      0.087905
     93 H38         2.1100   -3.9010    3.8110 hc        1 MOL     -0.081598
     94 H39        -0.0680   -3.6600    4.8550 hc        1 MOL     -0.078949
     95 H40         0.0630   -1.9410    4.6990 hc        1 MOL     -0.078949
     96 H41         3.2280   -2.0290    4.7940 hc        1 MOL      0.101528
     97 H42         3.4220   -1.9930    2.9320 hc        1 MOL      0.101528
     98 H43         2.3530   -0.8750    3.7940 hc        1 MOL      0.101528
     99 H44         0.5250   -3.0310    7.0960 hc        1 MOL      0.061134
    100 H45         1.9850   -3.7670    6.3820 hc        1 MOL      0.061134
    101 H46         1.7860   -1.9460    6.5550 hc        1 MOL      0.061134
    102 N10         1.9670   -2.0300    0.3370 n         1 MOL     -0.049781
    103 C32         2.8290   -1.9730   -0.9200 c3        1 MOL      0.021781
    104 C33         4.2220   -1.4940   -0.6500 c         1 MOL      0.447580
    105 O16         4.5050   -0.8670    0.4130 o         1 MOL     -0.396218
    106 C34         2.1520   -1.1330   -1.9790 c3        1 MOL     -0.240195
    107 C35         0.6820   -1.6340   -2.2370 c         1 MOL      0.656510
    108 O17        -0.2460   -1.2330   -1.5070 o         1 MOL     -0.657047
    109 O18         0.4480   -2.2490   -3.3000 o         1 MOL     -0.657047
    110 H47         1.5280   -1.1840    0.6610 hn        1 MOL      0.067689
    111 H48         2.8620   -2.9560   -1.3820 h1        1 MOL      0.069598
    112 H49         2.7500   -1.3200   -2.8660 hc        1 MOL      0.078813
    113 H50         2.1040   -0.0640   -1.8090 hc        1 MOL      0.078813
    114 N11         5.1020   -1.8420   -1.5590 n         1 MOL     -0.571561
    115 C36         6.5250   -1.4360   -1.4790 c3        1 MOL      0.277920
    116 C37         6.7910    0.0780   -1.1680 c         1 MOL      0.285882
    117 O19         7.5030    0.4000   -0.2110 o         1 MOL     -0.477874
    118 C38         7.3790   -2.0160   -2.6220 c3        1 MOL     -0.114661
    119 C39         8.8990   -1.7910   -2.3560 ca        1 MOL      0.086892
    120 C40         9.5650   -2.6280   -1.4360 ca        1 MOL     -0.215474
    121 C41         9.6140   -0.7220   -2.9410 ca        1 MOL     -0.215474
    122 C42        10.8830   -2.3020   -1.0830 ca        1 MOL     -0.023517
    123 C43        10.9320   -0.4280   -2.5970 ca        1 MOL     -0.023517
    124 C44        11.5930   -1.2340   -1.6210 ca        1 MOL     -0.194307
    125 H51         4.7750   -2.2400   -2.4260 hn        1 MOL      0.339716
    126 H52         6.9610   -2.0360   -0.6820 h1        1 MOL      0.057944
    127 H53         6.9760   -1.5250   -3.5080 hc        1 MOL      0.037435
    128 H54         7.1750   -3.0870   -2.7090 hc        1 MOL      0.037435
    129 H55         8.9240   -3.3600   -0.9600 ha        1 MOL      0.127463
    130 H56         9.0680   -0.1620   -3.6750 ha        1 MOL      0.127463
    131 H57        11.3110   -2.8970   -0.2910 ha        1 MOL      0.088906
    132 H58        11.5030    0.3600   -3.0590 ha        1 MOL      0.088906
    133 H59        12.5910   -0.9580   -1.2930 ha        1 MOL      0.125836
    134 N12         6.2070    1.0300   -1.9210 n         1 MOL     -0.058851
    135 C45         6.3750    2.4460   -1.5430 c3        1 MOL     -0.015558
    136 C46         5.7270    2.8460   -0.1880 c         1 MOL      0.290773
    137 O20         6.1070    3.8840    0.3670 o         1 MOL     -0.505812
    138 C47         5.6260    3.2260   -2.6530 c3        1 MOL     -0.180614
    139 C48         4.7100    2.2370   -3.3840 c3        1 MOL     -0.013883
    140 C49         5.3600    0.8740   -3.1050 c3        1 MOL      0.098461
    141 H60         7.4480    2.6020   -1.6090 h1        1 MOL      0.093486
    142 H61         5.0110    4.0390   -2.2870 hc        1 MOL      0.072416
    143 H62         6.3760    3.6060   -3.3530 hc        1 MOL      0.072416
    144 H63         3.6810    2.1980   -3.0160 hc        1 MOL      0.040337
    145 H64         4.7000    2.3480   -4.4700 hc        1 MOL      0.040337
    146 H65         4.5450    0.1550   -3.0010 h1        1 MOL     -0.026325
    147 H66         5.9720    0.6270   -3.9710 h1        1 MOL     -0.026325
    148 N13         4.7530    2.0850    0.2830 n         1 MOL      0.020701
    149 C50         4.0870    2.3920    1.5170 c3        1 MOL     -0.268975
    150 C51         4.8040    1.7890    2.7760 c         1 MOL      0.494952
    151 O21         4.7410    2.4040    3.8310 o         1 MOL     -0.566954
    152 C52         2.6860    1.8900    1.4540 c3        1 MOL      0.102562
    153 C53         1.8240    2.3450    0.3050 c3        1 MOL     -0.023683
    154 C54         0.3790    1.7380    0.4060 c         1 MOL      0.668709
    155 O22        -0.4810    2.0290   -0.4250 o         1 MOL     -0.738682
    156 O23         0.1400    0.7430    1.0900 o         1 MOL     -0.738682
    157 H67         4.3500    1.3580   -0.2880 hn        1 MOL      0.143069
    158 H68         3.9850    3.4750    1.5390 h1        1 MOL      0.133814
    159 H69         2.2250    2.1460    2.4100 hc        1 MOL      0.009640
    160 H70         2.7890    0.7960    1.4600 hc        1 MOL      0.009640
    161 H71         2.2210    2.1120   -0.6750 hc        1 MOL      0.024455
    162 H72         1.7590    3.4220    0.4070 hc        1 MOL      0.024455
    163 N14         5.6160    0.7860    2.6030 n         1 MOL     -0.030919
    164 C55         6.7050    0.3130    3.5120 c3        1 MOL     -0.238433
    165 H73         6.3900    0.4290    4.5480 h1        1 MOL      0.090516
    166 H74         6.9150   -0.7380    3.3120 h1        1 MOL      0.090516
    167 H75         7.6050    0.9020    3.3380 h1        1 MOL      0.090516
    168 H76         5.5230    0.2580    1.7550 hn        1 MOL      0.056233
    169 Ca1        -2.1200   -0.1170   -0.1280 Ca        1 MOL      1.743086
    170 O24        -4.0620   -1.0850    2.0860 oh        1 MOL     -0.892779
    171 H77        -4.7420   -0.6500    2.5910 ho        1 MOL      0.428841
    172 H78        -3.2690   -0.9800    2.6090 ho        1 MOL      0.428841
@<TRIPOS>BOND
     1    1    2 1   
     2    1    4 1   
     3    1    5 1   
     4    1    6 1   
     5    2    3 2   
     6    2    7 1   
     7    7    8 1   
     8    7   15 1   
     9    8    9 1   
    10    8   11 1   
    11    8   16 1   
    12    9   10 2   
    13    9   19 1   
    14   11   12 1   
    15   11   17 1   
    16   11   18 1   
    17   12   13 1   
    18   12   14 1   
    19   19   20 1   
    20   19   24 1   
    21   20   21 1   
    22   20   23 1   
    23   20   25 1   
    24   21   22 2   
    25   21   29 1   
    26   23   26 1   
    27   23   27 1   
    28   23   28 1   
    29   29   30 1   
    30   29   37 1   
    31   30   31 1   
    32   30   33 1   
    33   30   38 1   
    34   31   32 2   
    35   31   41 1   
    36   33   34 1   
    37   33   39 1   
    38   33   40 1   
    39   34   35 1   
    40   34   36 1   
    41   41   42 1   
    42   41   45 1   
    43   42   43 1   
    44   42   46 1   
    45   42   47 1   
    46   43   44 2   
    47   43   48 1   
    48   48   49 1   
    49   48   56 1   
    50   49   50 1   
    51   49   52 1   
    52   49   57 1   
    53   50   51 2   
    54   50   62 1   
    55   52   53 1   
    56   52   58 1   
    57   52   59 1   
    58   53   54 1   
    59   53   55 2   
    60   54   60 1   
    61   54   61 1   
    62   62   63 1   
    63   62   66 1   
    64   63   64 1   
    65   63   67 1   
    66   63   68 1   
    67   64   65 2   
    68   64   69 1   
    69   69   70 1   
    70   69   76 1   
    71   70   71 1   
    72   70   73 1   
    73   70   77 1   
    74   71   72 2   
    75   71   83 1   
    76   73   74 1   
    77   73   75 1   
    78   73   78 1   
    79   74   80 1   
    80   74   81 1   
    81   74   82 1   
    82   75   79 1   
    83   83   84 1   
    84   83   91 1   
    85   84   85 1   
    86   84   87 1   
    87   84   92 1   
    88   85   86 2   
    89   85  102 1   
    90   87   88 1   
    91   87   89 1   
    92   87   93 1   
    93   88   90 1   
    94   88   94 1   
    95   88   95 1   
    96   89   96 1   
    97   89   97 1   
    98   89   98 1   
    99   90   99 1   
   100   90  100 1   
   101   90  101 1   
   102  102  103 1   
   103  102  110 1   
   104  103  104 1   
   105  103  106 1   
   106  103  111 1   
   107  104  105 2   
   108  104  114 1   
   109  106  107 1   
   110  106  112 1   
   111  106  113 1   
   112  107  108 1   
   113  107  109 1   
   114  114  115 1   
   115  114  125 1   
   116  115  116 1   
   117  115  118 1   
   118  115  126 1   
   119  116  117 2   
   120  116  134 1   
   121  118  119 1   
   122  118  127 1   
   123  118  128 1   
   124  119  120 ar  
   125  119  121 ar  
   126  120  122 ar  
   127  120  129 1   
   128  121  123 ar  
   129  121  130 1   
   130  122  124 ar  
   131  122  131 1   
   132  123  124 ar  
   133  123  132 1   
   134  124  133 1   
   135  134  135 1   
   136  134  140 1   
   137  135  136 1   
   138  135  138 1   
   139  135  141 1   
   140  136  137 2   
   141  136  148 1   
   142  138  139 1   
   143  138  142 1   
   144  138  143 1   
   145  139  140 1   
   146  139  144 1   
   147  139  145 1   
   148  140  146 1   
   149  140  147 1   
   150  148  149 1   
   151  148  157 1   
   152  149  150 1   
   153  149  152 1   
   154  149  158 1   
   155  150  151 2   
   156  150  163 1   
   157  152  153 1   
   158  152  159 1   
   159  152  160 1   
   160  153  154 1   
   161  153  161 1   
   162  153  162 1   
   163  154  155 1   
   164  154  156 1   
   165  163  164 1   
   166  163  168 1   
   167  164  165 1   
   168  164  166 1   
   169  164  167 1   
   170  170  171 1   
   171  170  172 1   
@<TRIPOS>SUBSTRUCTURE
     1 MOL         1 TEMP              0 ****  ****    0 ROOT
