@<TRIPOS>MOLECULE
MOL
  189   185     1     0     0
SMALL
resp


@<TRIPOS>ATOM
      1 C1         -0.0540    3.0610   -5.0230 c3        1 MOL     -0.346854
      2 C2          0.3890    2.7100   -3.5990 c         1 MOL      0.602118
      3 O1         -0.3520    2.7660   -2.6030 o         1 MOL     -0.538672
      4 H1         -0.9890    3.6200   -4.9850 hc        1 MOL      0.089360
      5 H2          0.7120    3.6690   -5.5030 hc        1 MOL      0.089360
      6 H3         -0.2020    2.1440   -5.5950 hc        1 MOL      0.089360
      7 N1          1.6690    2.2800   -3.5480 n         1 MOL     -0.607938
      8 C3          2.3220    1.9020   -2.2920 c3        1 MOL      0.154878
      9 C4          2.6680    3.1800   -1.4570 c         1 MOL      0.488478
     10 O2          3.8350    3.5030   -1.2360 o         1 MOL     -0.484148
     11 C5          3.5200    0.9520   -2.5550 c3        1 MOL     -0.138605
     12 C6          4.1880    0.3230   -1.3400 c         1 MOL      0.587866
     13 O3          3.6750    0.3690   -0.2100 o         1 MOL     -0.590377
     14 O4          5.3200   -0.1510   -1.5160 o         1 MOL     -0.590377
     15 H4          2.1840    2.1310   -4.4050 hn        1 MOL      0.353666
     16 H5          1.6540    1.3890   -1.5890 h1        1 MOL      0.003818
     17 H6          4.2670    1.3640   -3.2300 hc        1 MOL      0.043416
     18 H7          3.1190    0.1460   -3.1760 hc        1 MOL      0.043416
     19 N2          1.7320    3.9410   -1.0050 n         1 MOL     -0.392624
     20 C7          1.9840    5.2660   -0.4270 c3        1 MOL     -0.091127
     21 C8          2.8270    5.3760    0.9400 c         1 MOL      0.485735
     22 O5          3.1560    6.5030    1.4040 o         1 MOL     -0.563720
     23 C9          0.6010    5.9360   -0.1750 c3        1 MOL     -0.216824
     24 C10         0.0420    6.4150   -1.5070 c3        1 MOL      0.333484
     25 C11        -1.2930    7.1590   -1.4090 c3        1 MOL     -0.118835
     26 C12        -1.7300    7.9590   -2.6290 c3        1 MOL     -0.060976
     27 N3         -1.7150    7.0220   -3.8050 n4        1 MOL     -0.316377
     28 H8          0.7730    3.6390   -1.0930 hn        1 MOL      0.394118
     29 H9          2.5320    5.8900   -1.1400 h1        1 MOL      0.099435
     30 H10         0.7670    6.8790    0.3460 hc        1 MOL      0.074821
     31 H11        -0.0540    5.2860    0.4140 hc        1 MOL      0.074821
     32 H12        -0.1400    5.5420   -2.1300 hc        1 MOL     -0.079239
     33 H13         0.7810    7.0660   -1.9640 hc        1 MOL     -0.079239
     34 H14        -1.1720    7.9170   -0.6360 hc        1 MOL      0.057387
     35 H15        -2.0740    6.4540   -1.1020 hc        1 MOL      0.057387
     36 H16        -1.0840    8.8150   -2.8240 hx        1 MOL      0.121429
     37 H17        -2.7300    8.3510   -2.4900 hx        1 MOL      0.121429
     38 H18        -1.9840    7.4560   -4.6730 hn        1 MOL      0.312835
     39 H19        -0.8150    6.6140   -4.0080 hn        1 MOL      0.312835
     40 H20        -2.3420    6.2570   -3.5910 hn        1 MOL      0.312835
     41 N4          3.0340    4.2480    1.5860 n         1 MOL     -0.171799
     42 C13         3.8840    4.0440    2.7350 c3        1 MOL     -0.046673
     43 C14         5.1410    3.1610    2.5060 c         1 MOL      0.357706
     44 O6          5.9820    2.9850    3.4380 o         1 MOL     -0.465295
     45 C15         3.0840    3.6210    3.9950 c3        1 MOL     -0.185084
     46 C16         2.1650    2.3530    3.7760 c         1 MOL      0.776524
     47 O7          1.2160    2.0630    4.5960 o         1 MOL     -0.689269
     48 O8          2.3900    1.6070    2.8480 o         1 MOL     -0.689269
     49 H21         2.6090    3.4790    1.0900 hn        1 MOL      0.171672
     50 H22         4.2710    5.0290    2.9940 h1        1 MOL      0.114539
     51 H23         2.4640    4.4310    4.3840 hc        1 MOL      0.054611
     52 H24         3.8020    3.3750    4.7730 hc        1 MOL      0.054611
     53 N5          5.3260    2.6910    1.2630 n         1 MOL     -0.010621
     54 C17         6.6390    2.3050    0.7530 c3        1 MOL     -0.045448
     55 C18         7.1910    1.1130    1.5020 c         1 MOL      0.385807
     56 O9          8.1330    1.2810    2.2840 o         1 MOL     -0.521234
     57 H25         4.5590    2.7780    0.6130 hn        1 MOL     -0.003883
     58 H26         7.4240    3.0650    0.7830 h1        1 MOL      0.054321
     59 H27         6.3980    2.0270   -0.2660 h1        1 MOL      0.054321
     60 N6          6.5600   -0.0650    1.3620 n         1 MOL     -0.075925
     61 C19         7.0640   -1.3370    1.9170 c3        1 MOL      0.038430
     62 C20         7.1880   -2.4570    0.8220 c         1 MOL      0.323155
     63 O10         7.4480   -3.6390    1.0830 o         1 MOL     -0.498735
     64 C21         6.2160   -1.9370    3.0400 c3        1 MOL     -0.007810
     65 C22         4.6530   -1.9170    2.7040 c         1 MOL      0.656588
     66 O11         4.2540   -2.2450    1.5850 o         1 MOL     -0.719527
     67 O12         3.8880   -1.3170    3.4490 o         1 MOL     -0.719527
     68 H28         5.7390   -0.1330    0.7690 hn        1 MOL      0.021254
     69 H29         8.0560   -1.1870    2.3290 h1        1 MOL      0.066080
     70 H30         6.3800   -1.3240    3.9220 hc        1 MOL      0.010895
     71 H31         6.5040   -2.9390    3.3410 hc        1 MOL      0.010895
     72 N7          7.1180   -2.0750   -0.4610 n         1 MOL     -0.223202
     73 C23         7.1340   -2.9920   -1.6060 c3        1 MOL     -0.180082
     74 C24         5.8610   -3.8530   -1.7870 c         1 MOL      0.494300
     75 O13         5.9920   -4.8480   -2.5020 o         1 MOL     -0.574843
     76 H32         7.0070   -1.0890   -0.5980 hn        1 MOL      0.204679
     77 H33         7.9910   -3.6640   -1.5730 h1        1 MOL      0.112875
     78 H34         7.1360   -2.3650   -2.4990 h1        1 MOL      0.112875
     79 N8          4.7290   -3.5700   -1.1930 n         1 MOL     -0.028262
     80 C25         3.4600   -4.3320   -1.2940 c3        1 MOL     -0.435940
     81 C26         2.2290   -3.4290   -1.3950 c         1 MOL      0.904737
     82 O14         2.2500   -2.3490   -0.7870 o         1 MOL     -0.652462
     83 C27         3.2930   -5.2930   -0.0610 c3        1 MOL      0.347971
     84 C28         4.4190   -6.2910    0.1000 c3        1 MOL     -0.522235
     85 O15         3.1170   -4.6090    1.1850 oh        1 MOL     -0.598446
     86 H35         4.6810   -2.6350   -0.8090 hn        1 MOL      0.129768
     87 H36         3.6410   -4.9660   -2.1580 h1        1 MOL      0.129134
     88 H37         2.3540   -5.8370   -0.1300 h1        1 MOL      0.049121
     89 H38         3.8600   -3.9960    1.1680 ho        1 MOL      0.389574
     90 H39         4.6640   -6.8930   -0.7810 hc        1 MOL      0.148396
     91 H40         5.3460   -5.8100    0.4160 hc        1 MOL      0.148396
     92 H41         4.0910   -7.0240    0.8350 hc        1 MOL      0.148396
     93 N9          1.0890   -3.8020   -2.0440 n         1 MOL     -0.733397
     94 C29        -0.1800   -3.1050   -2.1500 c3        1 MOL     -0.010304
     95 C30        -1.3190   -3.7670   -1.3790 c         1 MOL      0.555735
     96 O16        -1.6450   -4.9330   -1.5130 o         1 MOL     -0.563724
     97 C31        -0.4510   -2.7860   -3.6200 c3        1 MOL      0.194843
     98 C32         0.5850   -1.8410   -4.1960 c3        1 MOL      0.156989
     99 C33        -1.9120   -2.2640   -3.7840 c3        1 MOL     -0.380655
    100 C34         0.3700   -1.5620   -5.6910 c3        1 MOL     -0.393818
    101 H42         1.0230   -4.7510   -2.3840 hn        1 MOL      0.327014
    102 H43         0.0410   -2.1520   -1.6730 h1        1 MOL      0.060352
    103 H44        -0.4120   -3.6700   -4.2530 hc        1 MOL     -0.012349
    104 H45         1.5980   -2.1710   -3.9550 hc        1 MOL      0.011826
    105 H46         0.4730   -0.9000   -3.6460 hc        1 MOL      0.011826
    106 H47        -2.0030   -2.0000   -4.8460 hc        1 MOL      0.078635
    107 H48        -2.6370   -3.0620   -3.6170 hc        1 MOL      0.078635
    108 H49        -1.9850   -1.4440   -3.0770 hc        1 MOL      0.078635
    109 H50         1.2590   -1.0720   -6.0870 hc        1 MOL      0.095903
    110 H51         0.1550   -2.5270   -6.1630 hc        1 MOL      0.095903
    111 H52        -0.5280   -0.9520   -5.7680 hc        1 MOL      0.095903
    112 N10        -1.9600   -2.9800   -0.4800 n         1 MOL     -0.110798
    113 C35        -3.1110   -3.3250    0.3280 c3        1 MOL     -0.227017
    114 C36        -4.5110   -2.9290   -0.2850 c         1 MOL      0.509276
    115 O17        -4.5660   -2.2310   -1.3520 o         1 MOL     -0.449872
    116 C37        -2.9850   -2.6450    1.6500 c3        1 MOL      0.374621
    117 C38        -1.8620   -3.1380    2.4580 c3        1 MOL     -0.229840
    118 O18        -2.7920   -1.2910    1.5120 oh        1 MOL     -0.605465
    119 H53        -1.5350   -2.0730   -0.3210 hn        1 MOL      0.246585
    120 H54        -3.1170   -4.4050    0.4600 h1        1 MOL      0.091483
    121 H55        -3.8750   -2.8350    2.2440 h1        1 MOL     -0.029175
    122 H56        -1.9520   -1.0950    1.0880 ho        1 MOL      0.318969
    123 H57        -1.8000   -2.6370    3.4180 hc        1 MOL      0.046866
    124 H58        -1.9820   -4.2020    2.6680 hc        1 MOL      0.046866
    125 H59        -0.9370   -2.9060    1.9300 hc        1 MOL      0.046866
    126 N11        -5.6130   -3.3860    0.3200 n         1 MOL     -0.393959
    127 C39        -6.9480   -3.1550   -0.2410 c3        1 MOL     -0.113175
    128 C40        -7.3450   -1.7000   -0.3750 c         1 MOL      0.351487
    129 O19        -7.8240   -1.2270   -1.3910 o         1 MOL     -0.507041
    130 C41        -7.9980   -3.7140    0.7280 c3        1 MOL      0.154458
    131 C42        -7.8710   -5.1800    0.8340 c3        1 MOL     -0.207352
    132 O20        -7.9830   -3.1930    2.0200 oh        1 MOL     -0.583679
    133 H60        -5.5160   -3.9570    1.1430 hn        1 MOL      0.316286
    134 H61        -6.9810   -3.7150   -1.1770 h1        1 MOL      0.159137
    135 H62        -8.9580   -3.5530    0.2370 h1        1 MOL      0.080887
    136 H63        -8.8870   -3.3700    2.2940 ho        1 MOL      0.395747
    137 H64        -8.6470   -5.5750    1.4850 hc        1 MOL      0.065358
    138 H65        -8.2240   -5.6390   -0.0980 hc        1 MOL      0.065358
    139 H66        -6.9080   -5.5990    1.1290 hc        1 MOL      0.065358
    140 N12        -7.0900   -0.9080    0.6190 n         1 MOL     -0.274980
    141 C43        -7.2050    0.5970    0.6400 c3        1 MOL     -0.035289
    142 C44        -6.1260    1.3260   -0.2060 c         1 MOL      0.365780
    143 O21        -6.3690    2.4600   -0.5920 o         1 MOL     -0.510774
    144 C45        -7.0270    1.1250    2.0640 c3        1 MOL     -0.030908
    145 C46        -8.2990    0.7950    2.9170 c3        1 MOL     -0.111984
    146 C47        -8.2850    1.5460    4.3090 c3        1 MOL      0.113196
    147 C48        -9.6980    1.4140    5.0090 c3        1 MOL     -0.080000
    148 N13        -9.7730    2.1120    6.2940 n4        1 MOL     -0.130902
    149 H67        -6.7230   -1.4130    1.4130 hn        1 MOL      0.310072
    150 H68        -8.2210    0.8720    0.3450 h1        1 MOL      0.133521
    151 H69        -6.9350    2.1990    1.9360 hc        1 MOL      0.050138
    152 H70        -6.1380    0.6670    2.5040 hc        1 MOL      0.050138
    153 H71        -8.3070   -0.2770    3.1150 hc        1 MOL      0.028710
    154 H72        -9.1700    1.1550    2.3730 hc        1 MOL      0.028710
    155 H73        -7.9440    2.5780    4.2920 hc        1 MOL      0.007741
    156 H74        -7.4920    1.1090    4.9280 hc        1 MOL      0.007741
    157 H75        -9.9950    0.3740    5.1440 hx        1 MOL      0.093130
    158 H76       -10.3790    1.9250    4.3310 hx        1 MOL      0.093130
    159 H77       -10.7210    2.1410    6.6380 hn        1 MOL      0.227357
    160 H78        -9.1140    1.7240    6.9530 hn        1 MOL      0.227357
    161 H79        -9.4870    3.0720    6.2260 hn        1 MOL      0.227357
    162 N14        -4.9790    0.7180   -0.5340 n         1 MOL     -0.052263
    163 C49        -4.0440    1.3540   -1.4780 c3        1 MOL     -0.120020
    164 C50        -4.5980    1.3790   -2.9120 c         1 MOL      0.485685
    165 O22        -4.4620    2.4190   -3.5350 o         1 MOL     -0.536076
    166 C51        -2.6510    0.5830   -1.2910 c3        1 MOL     -0.387142
    167 C52        -1.7970    1.1810   -0.1650 c3        1 MOL      0.171417
    168 C53        -0.4750    0.4690    0.1610 c         1 MOL      0.702079
    169 O23         0.4490    1.1780    0.5280 o         1 MOL     -0.701539
    170 O24        -0.4500   -0.7950    0.1650 o         1 MOL     -0.701539
    171 H80        -4.7420   -0.1840   -0.1660 hn        1 MOL      0.091194
    172 H81        -3.9970    2.4110   -1.2010 h1        1 MOL      0.113579
    173 H82        -1.9860    0.6830   -2.1510 hc        1 MOL      0.124177
    174 H83        -2.7850   -0.4620   -1.0530 hc        1 MOL      0.124177
    175 H84        -2.3890    1.3500    0.7360 hc        1 MOL     -0.042068
    176 H85        -1.4630    2.1830   -0.4460 hc        1 MOL     -0.042068
    177 N15        -5.3260    0.3290   -3.3550 n         1 MOL     -0.177490
    178 C54        -6.1210    0.4590   -4.5520 c3        1 MOL     -0.240485
    179 H86        -5.6960    1.2350   -5.1880 h1        1 MOL      0.096913
    180 H87        -6.1260   -0.4890   -5.0900 h1        1 MOL      0.096913
    181 H88        -7.1420    0.7300   -4.2830 h1        1 MOL      0.096913
    182 H89        -5.3320   -0.5650   -2.8910 hn        1 MOL      0.242279
    183 Ca1         2.0360   -0.6260    1.4740 Ca        1 MOL      1.768629
    184 O25        -0.2810   -0.3200    3.2880 oh        1 MOL     -0.826372
    185 H90        -0.6610   -0.8170    4.0090 ho        1 MOL      0.407410
    186 H91        -0.5580    0.5820    3.4500 ho        1 MOL      0.407410
    187 O26         1.4550   -3.0350    2.5620 oh        1 MOL     -0.826372
    188 H92         2.0660   -3.6170    2.1060 ho        1 MOL      0.407410
    189 H93         1.2470   -3.5000    3.3800 ho        1 MOL      0.407410
@<TRIPOS>BOND
     1    1    2 1   
     2    1    4 1   
     3    1    5 1   
     4    1    6 1   
     5    2    3 2   
     6    2    7 1   
     7    7    8 1   
     8    7   15 1   
     9    8    9 1   
    10    8   11 1   
    11    8   16 1   
    12    9   10 2   
    13    9   19 1   
    14   11   12 1   
    15   11   17 1   
    16   11   18 1   
    17   12   13 1   
    18   12   14 1   
    19   19   20 1   
    20   19   28 1   
    21   20   21 1   
    22   20   23 1   
    23   20   29 1   
    24   21   22 2   
    25   21   41 1   
    26   23   24 1   
    27   23   30 1   
    28   23   31 1   
    29   24   25 1   
    30   24   32 1   
    31   24   33 1   
    32   25   26 1   
    33   25   34 1   
    34   25   35 1   
    35   26   27 1   
    36   26   36 1   
    37   26   37 1   
    38   27   38 1   
    39   27   39 1   
    40   27   40 1   
    41   41   42 1   
    42   41   49 1   
    43   42   43 1   
    44   42   45 1   
    45   42   50 1   
    46   43   44 2   
    47   43   53 1   
    48   45   46 1   
    49   45   51 1   
    50   45   52 1   
    51   46   47 1   
    52   46   48 1   
    53   53   54 1   
    54   53   57 1   
    55   54   55 1   
    56   54   58 1   
    57   54   59 1   
    58   55   56 2   
    59   55   60 1   
    60   60   61 1   
    61   60   68 1   
    62   61   62 1   
    63   61   64 1   
    64   61   69 1   
    65   62   63 2   
    66   62   72 1   
    67   64   65 1   
    68   64   70 1   
    69   64   71 1   
    70   65   66 1   
    71   65   67 1   
    72   72   73 1   
    73   72   76 1   
    74   73   74 1   
    75   73   77 1   
    76   73   78 1   
    77   74   75 2   
    78   74   79 1   
    79   79   80 1   
    80   79   86 1   
    81   80   81 1   
    82   80   83 1   
    83   80   87 1   
    84   81   82 2   
    85   81   93 1   
    86   83   84 1   
    87   83   85 1   
    88   83   88 1   
    89   84   90 1   
    90   84   91 1   
    91   84   92 1   
    92   85   89 1   
    93   93   94 1   
    94   93  101 1   
    95   94   95 1   
    96   94   97 1   
    97   94  102 1   
    98   95   96 2   
    99   95  112 1   
   100   97   98 1   
   101   97   99 1   
   102   97  103 1   
   103   98  100 1   
   104   98  104 1   
   105   98  105 1   
   106   99  106 1   
   107   99  107 1   
   108   99  108 1   
   109  100  109 1   
   110  100  110 1   
   111  100  111 1   
   112  112  113 1   
   113  112  119 1   
   114  113  114 1   
   115  113  116 1   
   116  113  120 1   
   117  114  115 2   
   118  114  126 1   
   119  116  117 1   
   120  116  118 1   
   121  116  121 1   
   122  117  123 1   
   123  117  124 1   
   124  117  125 1   
   125  118  122 1   
   126  126  127 1   
   127  126  133 1   
   128  127  128 1   
   129  127  130 1   
   130  127  134 1   
   131  128  129 2   
   132  128  140 1   
   133  130  131 1   
   134  130  132 1   
   135  130  135 1   
   136  131  137 1   
   137  131  138 1   
   138  131  139 1   
   139  132  136 1   
   140  140  141 1   
   141  140  149 1   
   142  141  142 1   
   143  141  144 1   
   144  141  150 1   
   145  142  143 2   
   146  142  162 1   
   147  144  145 1   
   148  144  151 1   
   149  144  152 1   
   150  145  146 1   
   151  145  153 1   
   152  145  154 1   
   153  146  147 1   
   154  146  155 1   
   155  146  156 1   
   156  147  148 1   
   157  147  157 1   
   158  147  158 1   
   159  148  159 1   
   160  148  160 1   
   161  148  161 1   
   162  162  163 1   
   163  162  171 1   
   164  163  164 1   
   165  163  166 1   
   166  163  172 1   
   167  164  165 2   
   168  164  177 1   
   169  166  167 1   
   170  166  173 1   
   171  166  174 1   
   172  167  168 1   
   173  167  175 1   
   174  167  176 1   
   175  168  169 1   
   176  168  170 1   
   177  177  178 1   
   178  177  182 1   
   179  178  179 1   
   180  178  180 1   
   181  178  181 1   
   182  184  185 1   
   183  184  186 1   
   184  187  188 1   
   185  187  189 1   
@<TRIPOS>SUBSTRUCTURE
     1 MOL         1 TEMP              0 ****  ****    0 ROOT
