@<TRIPOS>MOLECULE
MOL
  175   173     1     0     0
SMALL
resp


@<TRIPOS>ATOM
      1 C1          0.2350    3.5700    5.7940 c3        1 MOL     -0.427405
      2 C2         -0.2710    3.8030    4.3290 c         1 MOL      0.737655
      3 O1          0.5170    3.7770    3.4240 o         1 MOL     -0.565385
      4 H1         -0.3320    4.2020    6.4780 hc        1 MOL      0.102253
      5 H2          0.0940    2.5250    6.0670 hc        1 MOL      0.102253
      6 H3          1.2930    3.8240    5.8590 hc        1 MOL      0.102253
      7 N1         -1.5920    3.6700    4.1290 n         1 MOL     -0.711115
      8 C3         -2.2250    3.4320    2.8040 c3        1 MOL      0.231344
      9 C4         -2.3850    4.6960    1.9860 c         1 MOL      0.589460
     10 O2         -2.6670    5.8100    2.4920 o         1 MOL     -0.576403
     11 C5         -3.5890    2.7600    3.0870 c3        1 MOL     -0.214144
     12 C6         -4.3950    2.2890    1.8560 c         1 MOL      0.682425
     13 O3         -3.7830    1.8660    0.8670 o         1 MOL     -0.663112
     14 O4         -5.6280    2.2910    1.9080 o         1 MOL     -0.663112
     15 H4         -2.0790    3.5420    5.0130 hn        1 MOL      0.331739
     16 H5         -1.6060    2.7740    2.1920 h1        1 MOL      0.070673
     17 H6         -4.1990    3.5270    3.5640 hc        1 MOL      0.034533
     18 H7         -3.4460    1.9510    3.8160 hc        1 MOL      0.034533
     19 N2         -2.1840    4.6040    0.6530 n         1 MOL     -0.598649
     20 C7         -2.5120    5.6560   -0.3330 c3        1 MOL      0.474900
     21 C8         -3.3180    5.1340   -1.6070 c         1 MOL      0.332601
     22 O5         -3.4110    5.8810   -2.5540 o         1 MOL     -0.538488
     23 C9         -1.1790    6.3730   -0.8090 c3        1 MOL     -0.471734
     24 H8         -1.7970    3.7560    0.2620 hn        1 MOL      0.342880
     25 H9         -3.1020    6.4420    0.1550 h1        1 MOL     -0.027218
     26 H10        -0.4620    6.3760    0.0100 hc        1 MOL      0.115332
     27 H11        -0.8780    5.7890   -1.6810 hc        1 MOL      0.115332
     28 H12        -1.3980    7.3880   -1.1510 hc        1 MOL      0.115332
     29 N3         -3.8900    3.9480   -1.5660 n         1 MOL     -0.218247
     30 C10        -4.8340    3.5120   -2.6580 c3        1 MOL      0.073033
     31 C11        -5.9760    2.6450   -2.1760 c         1 MOL      0.390182
     32 O6         -6.8740    2.4850   -3.0540 o         1 MOL     -0.547238
     33 C12        -4.0370    2.7740   -3.7650 c3        1 MOL     -0.226424
     34 C13        -3.1220    1.5660   -3.3370 c         1 MOL      0.799180
     35 O7         -2.3020    1.1920   -4.1670 o         1 MOL     -0.692311
     36 O8         -3.3100    1.0610   -2.2230 o         1 MOL     -0.692311
     37 H13        -3.7810    3.2660   -0.8350 hn        1 MOL      0.056593
     38 H14        -5.3200    4.4020   -3.0560 h1        1 MOL      0.076449
     39 H15        -3.3520    3.4720   -4.2470 hc        1 MOL      0.039521
     40 H16        -4.8020    2.3490   -4.4160 hc        1 MOL      0.039521
     41 N4         -6.1630    2.1780   -0.9470 n         1 MOL     -0.182864
     42 C14        -7.3090    1.3040   -0.5820 c3        1 MOL     -0.310990
     43 C15        -7.2330   -0.2120   -1.0150 c         1 MOL      0.677459
     44 O9         -8.1870   -0.9440   -0.9910 o         1 MOL     -0.627831
     45 H17        -5.5450    2.4220   -0.1940 hn        1 MOL      0.209155
     46 H18        -8.1950    1.6730   -1.1030 h1        1 MOL      0.136739
     47 H19        -7.4950    1.3200    0.4880 h1        1 MOL      0.136739
     48 N5         -6.0850   -0.6390   -1.5640 n         1 MOL     -0.624948
     49 C16        -5.9840   -2.0120   -2.1390 c3        1 MOL      0.502094
     50 C17        -5.9100   -3.1640   -1.1000 c         1 MOL      0.185747
     51 O10        -5.5150   -4.2360   -1.4800 o         1 MOL     -0.435783
     52 C18        -5.0010   -2.0980   -3.2400 c3        1 MOL     -0.443601
     53 C19        -3.5240   -2.0630   -2.7140 c         1 MOL      0.755067
     54 N6         -2.5720   -2.0160   -3.5430 n         1 MOL     -0.556246
     55 O11        -3.2390   -1.9630   -1.5420 o         1 MOL     -0.724504
     56 H20        -5.5100    0.1320   -1.8820 hn        1 MOL      0.323626
     57 H21        -6.9460   -2.2220   -2.6170 h1        1 MOL      0.026262
     58 H22        -5.1240   -1.1380   -3.7520 hc        1 MOL      0.097438
     59 H23        -5.1700   -2.9670   -3.8630 hc        1 MOL      0.097438
     60 H24        -2.7710   -2.1940   -4.5230 hn        1 MOL      0.309615
     61 H25        -1.6670   -1.9630   -3.1000 hn        1 MOL      0.309615
     62 N7         -6.2040   -2.9390    0.1940 n         1 MOL     -0.040578
     63 C20        -6.3020   -4.0970    1.1610 c3        1 MOL     -0.208364
     64 C21        -4.9650   -4.7660    1.5160 c         1 MOL      0.538608
     65 O12        -4.9830   -5.7680    2.2220 o         1 MOL     -0.586425
     66 H26        -6.8190   -2.1690    0.3960 hn        1 MOL      0.194487
     67 H27        -7.0180   -4.8470    0.8130 h1        1 MOL      0.096839
     68 H28        -6.6640   -3.7520    2.1220 h1        1 MOL      0.096839
     69 N8         -3.8420   -4.2610    1.0190 n         1 MOL      0.014734
     70 C22        -2.4690   -4.7260    1.2920 c3        1 MOL     -0.408362
     71 C23        -1.4570   -3.5770    1.4730 c         1 MOL      0.807199
     72 O13        -1.6100   -2.5130    0.9070 o         1 MOL     -0.517683
     73 C24        -1.9600   -5.5320    0.0950 c3        1 MOL      0.693396
     74 C25        -2.6640   -6.8640   -0.1500 c3        1 MOL     -0.455178
     75 O14        -2.0370   -4.8190   -1.1440 oh        1 MOL     -0.607306
     76 H29        -3.9360   -3.4250    0.4610 hn        1 MOL     -0.113935
     77 H30        -2.4170   -5.4170    2.1290 h1        1 MOL      0.109618
     78 H31        -0.9200   -5.7690    0.2940 h1        1 MOL     -0.083981
     79 H32        -2.2270   -3.9480   -0.7790 ho        1 MOL      0.346972
     80 H33        -2.3630   -7.6410    0.5630 hc        1 MOL      0.100192
     81 H34        -3.7340   -6.6860   -0.1660 hc        1 MOL      0.100192
     82 H35        -2.2570   -7.1590   -1.1140 hc        1 MOL      0.100192
     83 N9         -0.3740   -3.8800    2.1690 n         1 MOL     -0.787647
     84 C26         0.8390   -2.9550    2.0500 c3        1 MOL     -0.011652
     85 C27         1.5210   -3.0740    0.6350 c         1 MOL      0.506608
     86 O15         1.7580   -4.1870    0.1760 o         1 MOL     -0.549864
     87 C28         2.0460   -3.0720    3.1570 c3        1 MOL      0.301139
     88 C29         1.3360   -3.4620    4.5020 c3        1 MOL      0.096051
     89 C30         2.9070   -1.8330    3.2780 c3        1 MOL     -0.273726
     90 C31         2.1820   -4.0010    5.5720 c3        1 MOL     -0.198571
     91 H36        -0.2710   -4.8080    2.5590 hn        1 MOL      0.380331
     92 H37         0.4260   -1.9450    2.0860 h1        1 MOL      0.054836
     93 H38         2.6350   -3.9020    2.7760 hc        1 MOL     -0.044707
     94 H39         0.5790   -4.2380    4.3660 hc        1 MOL     -0.011913
     95 H40         0.8440   -2.5520    4.8510 hc        1 MOL     -0.011913
     96 H41         2.2870   -1.0110    3.6540 hc        1 MOL      0.044811
     97 H42         3.6680   -2.1420    3.9900 hc        1 MOL      0.044811
     98 H43         3.3590   -1.5770    2.3190 hc        1 MOL      0.044811
     99 H44         2.9140   -4.7300    5.2110 hc        1 MOL      0.034931
    100 H45         2.6510   -3.1790    6.1150 hc        1 MOL      0.034931
    101 H46         1.5450   -4.4670    6.3200 hc        1 MOL      0.034931
    102 N10         1.7690   -1.9350   -0.0510 n         1 MOL     -0.297160
    103 C32         2.5860   -1.8150   -1.2960 c3        1 MOL      0.003345
    104 C33         4.0030   -1.4860   -0.9600 c         1 MOL      0.423483
    105 O16         4.3020   -0.9930    0.1470 o         1 MOL     -0.346918
    106 C34         1.9890   -0.6660   -2.0730 c3        1 MOL     -0.263283
    107 C35         0.5140   -1.0500   -2.4350 c         1 MOL      0.736993
    108 O17        -0.3940   -0.5580   -1.7050 o         1 MOL     -0.655353
    109 O18         0.3680   -1.5690   -3.5650 o         1 MOL     -0.655353
    110 H47         1.4910   -1.0750    0.4030 hn        1 MOL      0.155422
    111 H48         2.4240   -2.6770   -1.9330 h1        1 MOL      0.077859
    112 H49         2.5040   -0.3970   -2.9990 hc        1 MOL      0.099613
    113 H50         1.8680    0.1610   -1.3760 hc        1 MOL      0.099613
    114 N11         4.9660   -1.6090   -1.8570 n         1 MOL     -0.542513
    115 C36         6.3900   -1.2390   -1.6610 c3        1 MOL      0.423921
    116 C37         6.6410    0.1860   -1.1360 c         1 MOL      0.216897
    117 O19         7.5090    0.3690   -0.2440 o         1 MOL     -0.476480
    118 C38         7.3190   -1.7230   -2.7690 c3        1 MOL     -0.293469
    119 C39         8.8320   -1.5910   -2.4960 ca        1 MOL      0.111276
    120 C40         9.5520   -2.5560   -1.7770 ca        1 MOL     -0.185669
    121 C41         9.4680   -0.3860   -2.9570 ca        1 MOL     -0.185669
    122 C42        10.8820   -2.4600   -1.5400 ca        1 MOL     -0.092702
    123 C43        10.8410   -0.2660   -2.6020 ca        1 MOL     -0.092702
    124 C44        11.5470   -1.2720   -1.9510 ca        1 MOL     -0.109642
    125 H51         4.7070   -2.1320   -2.6910 hn        1 MOL      0.286588
    126 H52         6.6190   -1.8360   -0.7800 h1        1 MOL      0.013191
    127 H53         7.0700   -1.1460   -3.6610 hc        1 MOL      0.084564
    128 H54         7.1060   -2.7860   -2.8980 hc        1 MOL      0.084564
    129 H55         9.0260   -3.4270   -1.4060 ha        1 MOL      0.133144
    130 H56         8.9400    0.4270   -3.4380 ha        1 MOL      0.133144
    131 H57        11.5360   -3.2140   -1.1270 ha        1 MOL      0.103769
    132 H58        11.3860    0.6420   -2.7930 ha        1 MOL      0.103769
    133 H59        12.6220   -1.1870   -1.8100 ha        1 MOL      0.092319
    134 N12         6.0040    1.2730   -1.5770 n         1 MOL      0.060973
    135 C45         6.2810    2.6050   -1.1010 c3        1 MOL     -0.116566
    136 C46         5.6680    2.8230    0.3090 c         1 MOL      0.289595
    137 O20         6.2390    3.4920    1.1740 o         1 MOL     -0.504788
    138 C47         5.6730    3.5660   -2.1340 c3        1 MOL      0.057400
    139 C48         5.2020    2.7030   -3.2620 c3        1 MOL     -0.099056
    140 C49         5.0810    1.2880   -2.7050 c3        1 MOL      0.067839
    141 H60         7.3580    2.7420   -1.0480 h1        1 MOL      0.092151
    142 H61         4.8000    4.0820   -1.7230 hc        1 MOL      0.017520
    143 H62         6.2840    4.3590   -2.5420 hc        1 MOL      0.017520
    144 H63         4.2560    2.9460   -3.7440 hc        1 MOL      0.033128
    145 H64         6.0240    2.6870   -3.9760 hc        1 MOL      0.033128
    146 H65         4.0790    1.0500   -2.3570 h1        1 MOL     -0.002264
    147 H66         5.3780    0.5860   -3.4930 h1        1 MOL     -0.002264
    148 N13         4.5820    2.1610    0.5540 n         1 MOL     -0.016010
    149 C50         3.9100    2.1190    1.8960 c3        1 MOL     -0.266477
    150 C51         4.7880    1.4120    2.9710 c         1 MOL      0.461777
    151 O21         4.7720    1.8240    4.1500 o         1 MOL     -0.552027
    152 C52         2.4710    1.6380    1.8590 c3        1 MOL     -0.002418
    153 C53         1.6670    2.2020    0.6760 c3        1 MOL     -0.097774
    154 C54         0.3560    1.4330    0.5040 c         1 MOL      0.646378
    155 O22        -0.5400    2.0710   -0.0030 o         1 MOL     -0.710667
    156 O23         0.1320    0.2870    0.9060 o         1 MOL     -0.710667
    157 H67         4.1930    1.6140   -0.2050 hn        1 MOL      0.108177
    158 H68         3.7630    3.1570    2.1950 h1        1 MOL      0.143661
    159 H69         2.0340    1.8570    2.8370 hc        1 MOL      0.077593
    160 H70         2.4200    0.5500    1.7830 hc        1 MOL      0.077593
    161 H71         2.1510    2.0190   -0.2890 hc        1 MOL      0.059635
    162 H72         1.6080    3.2860    0.7620 hc        1 MOL      0.059635
    163 N14         5.4740    0.3510    2.4980 n         1 MOL      0.027937
    164 C55         6.4160   -0.3920    3.3320 c3        1 MOL     -0.165035
    165 H73         6.1910   -0.2110    4.3840 h1        1 MOL      0.062563
    166 H74         6.3280   -1.4580    3.1200 h1        1 MOL      0.062563
    167 H75         7.4330   -0.0610    3.1180 h1        1 MOL      0.062563
    168 H76         5.1820    0.0780    1.5670 hn        1 MOL      0.022026
    169 Ca1        -2.2830   -0.0780   -0.1030 Ca        1 MOL      1.677449
    170 O24        -1.7140   -0.0810    2.5930 oh        1 MOL     -0.840497
    171 H77        -1.5890   -0.2650    3.5300 ho        1 MOL      0.409770
    172 H78        -0.8390    0.1460    2.2710 ho        1 MOL      0.409770
    173 O25        -4.0690   -1.1610    1.3800 oh        1 MOL     -0.840497
    174 H79        -3.4590   -0.9790    2.0950 ho        1 MOL      0.409770
    175 H80        -4.9270   -0.9830    1.7410 ho        1 MOL      0.409770
@<TRIPOS>BOND
     1    1    2 1   
     2    1    4 1   
     3    1    5 1   
     4    1    6 1   
     5    2    3 2   
     6    2    7 1   
     7    7    8 1   
     8    7   15 1   
     9    8    9 1   
    10    8   11 1   
    11    8   16 1   
    12    9   10 2   
    13    9   19 1   
    14   11   12 1   
    15   11   17 1   
    16   11   18 1   
    17   12   13 1   
    18   12   14 1   
    19   19   20 1   
    20   19   24 1   
    21   20   21 1   
    22   20   23 1   
    23   20   25 1   
    24   21   22 2   
    25   21   29 1   
    26   23   26 1   
    27   23   27 1   
    28   23   28 1   
    29   29   30 1   
    30   29   37 1   
    31   30   31 1   
    32   30   33 1   
    33   30   38 1   
    34   31   32 2   
    35   31   41 1   
    36   33   34 1   
    37   33   39 1   
    38   33   40 1   
    39   34   35 1   
    40   34   36 1   
    41   41   42 1   
    42   41   45 1   
    43   42   43 1   
    44   42   46 1   
    45   42   47 1   
    46   43   44 2   
    47   43   48 1   
    48   48   49 1   
    49   48   56 1   
    50   49   50 1   
    51   49   52 1   
    52   49   57 1   
    53   50   51 2   
    54   50   62 1   
    55   52   53 1   
    56   52   58 1   
    57   52   59 1   
    58   53   54 1   
    59   53   55 2   
    60   54   60 1   
    61   54   61 1   
    62   62   63 1   
    63   62   66 1   
    64   63   64 1   
    65   63   67 1   
    66   63   68 1   
    67   64   65 2   
    68   64   69 1   
    69   69   70 1   
    70   69   76 1   
    71   70   71 1   
    72   70   73 1   
    73   70   77 1   
    74   71   72 2   
    75   71   83 1   
    76   73   74 1   
    77   73   75 1   
    78   73   78 1   
    79   74   80 1   
    80   74   81 1   
    81   74   82 1   
    82   75   79 1   
    83   83   84 1   
    84   83   91 1   
    85   84   85 1   
    86   84   87 1   
    87   84   92 1   
    88   85   86 2   
    89   85  102 1   
    90   87   88 1   
    91   87   89 1   
    92   87   93 1   
    93   88   90 1   
    94   88   94 1   
    95   88   95 1   
    96   89   96 1   
    97   89   97 1   
    98   89   98 1   
    99   90   99 1   
   100   90  100 1   
   101   90  101 1   
   102  102  103 1   
   103  102  110 1   
   104  103  104 1   
   105  103  106 1   
   106  103  111 1   
   107  104  105 2   
   108  104  114 1   
   109  106  107 1   
   110  106  112 1   
   111  106  113 1   
   112  107  108 1   
   113  107  109 1   
   114  114  115 1   
   115  114  125 1   
   116  115  116 1   
   117  115  118 1   
   118  115  126 1   
   119  116  117 2   
   120  116  134 1   
   121  118  119 1   
   122  118  127 1   
   123  118  128 1   
   124  119  120 ar  
   125  119  121 ar  
   126  120  122 ar  
   127  120  129 1   
   128  121  123 ar  
   129  121  130 1   
   130  122  124 ar  
   131  122  131 1   
   132  123  124 ar  
   133  123  132 1   
   134  124  133 1   
   135  134  135 1   
   136  134  140 1   
   137  135  136 1   
   138  135  138 1   
   139  135  141 1   
   140  136  137 2   
   141  136  148 1   
   142  138  139 1   
   143  138  142 1   
   144  138  143 1   
   145  139  140 1   
   146  139  144 1   
   147  139  145 1   
   148  140  146 1   
   149  140  147 1   
   150  148  149 1   
   151  148  157 1   
   152  149  150 1   
   153  149  152 1   
   154  149  158 1   
   155  150  151 2   
   156  150  163 1   
   157  152  153 1   
   158  152  159 1   
   159  152  160 1   
   160  153  154 1   
   161  153  161 1   
   162  153  162 1   
   163  154  155 1   
   164  154  156 1   
   165  163  164 1   
   166  163  168 1   
   167  164  165 1   
   168  164  166 1   
   169  164  167 1   
   170  170  171 1   
   171  170  172 1   
   172  173  174 1   
   173  173  175 1   
@<TRIPOS>SUBSTRUCTURE
     1 MOL         1 TEMP              0 ****  ****    0 ROOT
