@<TRIPOS>MOLECULE
MOL
  183   181     1     0     0
SMALL
resp


@<TRIPOS>ATOM
      1 C1          0.8040    2.4520   -6.4960 c3        1 MOL     -0.249410
      2 C2          1.1870    2.4040   -5.0450 c         1 MOL      0.770655
      3 O1          0.5110    2.9980   -4.2190 o         1 MOL     -0.595505
      4 H1          1.0320    1.4940   -6.9630 hc        1 MOL      0.052210
      5 H2         -0.2640    2.6530   -6.5850 hc        1 MOL      0.052210
      6 H3          1.3650    3.2410   -6.9960 hc        1 MOL      0.052210
      7 N1          2.3090    1.7450   -4.6500 n         1 MOL     -0.659720
      8 C3          2.8490    1.6520   -3.3230 c3        1 MOL      0.045742
      9 C4          3.2570    3.0060   -2.6890 c         1 MOL      0.719636
     10 O2          4.0930    3.6850   -3.3100 o         1 MOL     -0.595414
     11 C5          3.9210    0.5720   -3.2240 c3        1 MOL      0.039153
     12 C6          4.3110    0.1380   -1.8130 c         1 MOL      0.654570
     13 O3          5.3690   -0.4770   -1.7570 o         1 MOL     -0.657252
     14 O4          3.6230    0.5860   -0.8000 o         1 MOL     -0.657252
     15 H4          2.7930    1.2490   -5.3850 hn        1 MOL      0.317954
     16 H5          2.0200    1.2960   -2.7060 h1        1 MOL     -0.039289
     17 H6          4.8000    1.0110   -3.7030 hc        1 MOL     -0.010984
     18 H7          3.6880   -0.3180   -3.8240 hc        1 MOL     -0.010984
     19 N2          2.7310    3.3370   -1.5370 n         1 MOL     -0.443945
     20 C7          2.9850    4.6650   -1.0220 c3        1 MOL     -0.208465
     21 C8          4.0590    4.7450    0.0490 c         1 MOL      0.569474
     22 O5          4.9990    5.5830   -0.0310 o         1 MOL     -0.600283
     23 C9          1.7170    5.2990   -0.4200 c3        1 MOL      0.277965
     24 C10         0.8670    5.8820   -1.5720 c3        1 MOL      0.356084
     25 C11         1.9190    6.4190    0.6310 c3        1 MOL     -0.485466
     26 C12        -0.2710    6.8120   -1.2350 c3        1 MOL     -0.260309
     27 H8          2.3530    2.5940   -0.9650 hn        1 MOL      0.248587
     28 H9          3.3690    5.2570   -1.8540 h1        1 MOL      0.101858
     29 H10         1.1160    4.5320    0.0620 hc        1 MOL     -0.023381
     30 H11         0.4600    5.0260   -2.1120 hc        1 MOL     -0.085529
     31 H12         1.5090    6.5230   -2.1870 hc        1 MOL     -0.085529
     32 H13         2.5160    6.1410    1.4950 hc        1 MOL      0.102340
     33 H14         2.4260    7.3270    0.3110 hc        1 MOL      0.102340
     34 H15         0.8910    6.6660    0.9050 hc        1 MOL      0.102340
     35 H16        -0.9770    6.8530   -2.0670 hc        1 MOL      0.040017
     36 H17        -0.8390    6.4270   -0.3950 hc        1 MOL      0.040017
     37 H18         0.0810    7.7830   -0.8840 hc        1 MOL      0.040017
     38 N3          4.0650    3.7480    0.9410 n         1 MOL     -0.231618
     39 C13         5.0080    3.7080    2.0800 c3        1 MOL     -0.055076
     40 C14         6.2740    2.8620    1.7930 c         1 MOL      0.315895
     41 O6          7.1890    2.7830    2.6810 o         1 MOL     -0.501994
     42 C15         4.3140    3.1950    3.4020 c3        1 MOL     -0.178862
     43 C16         3.6030    1.8850    3.3330 c         1 MOL      0.861258
     44 O7          2.7310    1.6300    4.1460 o         1 MOL     -0.735523
     45 O8          3.7710    1.1350    2.3470 o         1 MOL     -0.735523
     46 H19         3.4480    2.9480    0.8410 hn        1 MOL      0.199408
     47 H20         5.3600    4.7060    2.3550 h1        1 MOL      0.095427
     48 H21         3.4820    3.8530    3.6380 hc        1 MOL      0.036521
     49 H22         4.9910    3.1420    4.2660 hc        1 MOL      0.036521
     50 N4          6.2860    2.2800    0.6280 n         1 MOL     -0.018930
     51 C17         7.3770    1.4740    0.1870 c3        1 MOL     -0.245715
     52 C18         7.8790    0.2620    1.0100 c         1 MOL      0.537048
     53 O9          9.0320    0.2940    1.5150 o         1 MOL     -0.581772
     54 H23         5.5520    2.5250   -0.0220 hn        1 MOL      0.202976
     55 H24         8.2690    2.1090    0.0990 h1        1 MOL      0.078969
     56 H25         7.1700    1.0850   -0.8160 h1        1 MOL      0.078969
     57 N5          7.1040   -0.8210    1.0440 n         1 MOL     -0.112869
     58 C19         7.3810   -2.1660    1.6010 c3        1 MOL     -0.079198
     59 C20         7.2550   -3.3560    0.5620 c         1 MOL      0.489498
     60 O10         7.3910   -4.5020    0.9420 o         1 MOL     -0.539650
     61 C21         6.4300   -2.4250    2.7730 c3        1 MOL     -0.035411
     62 C22         4.9560   -2.1480    2.4910 c         1 MOL      0.620863
     63 O11         4.2050   -1.8710    3.4580 o         1 MOL     -0.671344
     64 O12         4.5970   -2.1640    1.2580 o         1 MOL     -0.671344
     65 H26         6.1830   -0.6890    0.6410 hn        1 MOL      0.009525
     66 H27         8.4380   -2.1700    1.8700 h1        1 MOL      0.076507
     67 H28         6.7860   -1.7150    3.5190 hc        1 MOL      0.024459
     68 H29         6.5080   -3.3970    3.2650 hc        1 MOL      0.024459
     69 N6          6.9490   -3.0570   -0.7230 n         1 MOL     -0.419642
     70 C23         6.7840   -4.1140   -1.7790 c3        1 MOL      0.014295
     71 C24         5.3840   -4.7690   -1.8160 c         1 MOL      0.467405
     72 O13         5.2380   -5.8170   -2.4870 o         1 MOL     -0.575813
     73 H30         6.7590   -2.0840   -0.9210 hn        1 MOL      0.260413
     74 H31         7.5050   -4.9190   -1.6510 h1        1 MOL      0.056839
     75 H32         6.9290   -3.7860   -2.8080 h1        1 MOL      0.056839
     76 N7          4.4020   -4.0940   -1.1660 n         1 MOL     -0.219681
     77 C25         2.9890   -4.4530   -1.3500 c3        1 MOL     -0.014290
     78 C26         2.1210   -3.2540   -1.3840 c         1 MOL      0.624536
     79 O14         2.5020   -2.1350   -1.0650 o         1 MOL     -0.644051
     80 C27         2.5050   -5.5910   -0.4340 c3        1 MOL      0.011244
     81 C28         2.7400   -5.2600    1.0970 c3        1 MOL     -0.026040
     82 C29         1.7450   -4.2540    1.7540 c         1 MOL      0.651103
     83 N8          1.2980   -4.5800    3.0000 n         1 MOL     -0.831190
     84 O15         1.3620   -3.1630    1.2770 o         1 MOL     -0.625309
     85 H33         4.6880   -3.4270   -0.4660 hn        1 MOL      0.297616
     86 H34         2.9930   -4.8550   -2.3600 h1        1 MOL      0.053797
     87 H35         3.1320   -6.4410   -0.7070 hc        1 MOL      0.003787
     88 H36         1.4620   -5.8960   -0.5010 hc        1 MOL      0.003787
     89 H37         3.7790   -4.9490    1.2080 hc        1 MOL      0.008316
     90 H38         2.6120   -6.1950    1.6320 hc        1 MOL      0.008316
     91 H39         1.5170   -5.3930    3.5550 hn        1 MOL      0.378675
     92 H40         0.7800   -3.8600    3.4830 hn        1 MOL      0.378675
     93 N9          0.8670   -3.4440   -1.9210 n         1 MOL     -0.547726
     94 C30        -0.1490   -2.3180   -1.9580 c3        1 MOL      0.030488
     95 C31        -1.4020   -2.8750   -1.3520 c         1 MOL      0.458988
     96 O16        -2.0310   -3.8270   -1.8670 o         1 MOL     -0.600787
     97 C32        -0.4210   -1.9010   -3.4290 c3        1 MOL      0.339013
     98 C33        -1.6470   -1.1000   -3.6160 c3        1 MOL     -0.350456
     99 C34         0.7590   -1.1240   -3.9810 c3        1 MOL     -0.350456
    100 H41         0.5770   -4.3620   -2.2240 hn        1 MOL      0.293730
    101 H42         0.2660   -1.5010   -1.3810 h1        1 MOL      0.088033
    102 H43        -0.4510   -2.8340   -3.9730 hc        1 MOL     -0.047719
    103 H44        -1.6350   -0.6840   -4.6200 hc        1 MOL      0.072611
    104 H45        -2.5430   -1.7340   -3.5920 hc        1 MOL      0.072611
    105 H46        -1.6500   -0.3900   -2.7900 hc        1 MOL      0.072611
    106 H47         1.6660   -1.7200   -3.9190 hc        1 MOL      0.072611
    107 H48         0.5420   -0.8730   -5.0240 hc        1 MOL      0.072611
    108 H49         0.7870   -0.2010   -3.3950 hc        1 MOL      0.072611
    109 N10        -1.8570   -2.2650   -0.2730 n         1 MOL     -0.117566
    110 C35        -3.0870   -2.6640    0.4040 c3        1 MOL      0.074715
    111 C36        -4.3270   -1.9170    0.0050 c         1 MOL      0.363008
    112 O17        -4.2450   -1.0150   -0.7930 o         1 MOL     -0.291501
    113 C37        -2.8850   -2.5510    1.9170 c3        1 MOL     -0.549963
    114 C38        -3.2430   -1.2540    2.5110 c         1 MOL      0.749992
    115 N11        -2.2790   -0.3660    2.5620 n         1 MOL     -0.827025
    116 O18        -4.3500   -0.9900    2.9120 o         1 MOL     -0.545360
    117 H50        -1.3790   -1.4210    0.0350 hn        1 MOL      0.133974
    118 H51        -3.2130   -3.7190    0.1680 h1        1 MOL      0.079663
    119 H52        -1.8700   -2.8550    2.1750 hc        1 MOL      0.165670
    120 H53        -3.5140   -3.2860    2.4060 hc        1 MOL      0.165670
    121 H54        -1.4830   -0.4690    1.9510 hn        1 MOL      0.406014
    122 H55        -2.5190    0.5080    3.0260 hn        1 MOL      0.406014
    123 N12        -5.5940   -2.2390    0.4370 n         1 MOL     -0.454104
    124 C39        -6.7930   -1.5870   -0.0630 c3        1 MOL      0.077777
    125 C40        -6.8380   -0.0700    0.1210 c         1 MOL      0.619757
    126 O19        -7.1970    0.6930   -0.7800 o         1 MOL     -0.523254
    127 C41        -8.0460   -2.3410    0.4790 c3        1 MOL     -0.213180
    128 C42        -9.3030   -1.9920   -0.2240 ca        1 MOL     -0.030354
    129 C43        -9.4670   -2.5160   -1.5400 ca        1 MOL     -0.060668
    130 C44       -10.3500   -1.2890    0.4300 ca        1 MOL     -0.060668
    131 C45       -10.7470   -2.3660   -2.2180 ca        1 MOL     -0.381566
    132 C46       -11.5700   -1.1010   -0.2660 ca        1 MOL     -0.381566
    133 C47       -11.7750   -1.5510   -1.6050 ca        1 MOL      0.436686
    134 O20       -12.9310   -1.2670   -2.2130 oh        1 MOL     -0.504940
    135 H56        -5.7030   -3.0900    0.9710 hn        1 MOL      0.289742
    136 H57        -6.7490   -1.6900   -1.1470 h1        1 MOL      0.072820
    137 H58        -8.1790   -2.2880    1.5620 hc        1 MOL      0.094796
    138 H59        -7.8630   -3.4090    0.3320 hc        1 MOL      0.094796
    139 H60        -8.7290   -3.1230   -2.0450 ha        1 MOL      0.134020
    140 H61       -10.2870   -0.8720    1.4250 ha        1 MOL      0.134020
    141 H62       -10.9270   -2.7850   -3.1920 ha        1 MOL      0.165398
    142 H63       -12.3830   -0.5050    0.1110 ha        1 MOL      0.165398
    143 H64       -13.4340   -0.7100   -1.6210 ho        1 MOL      0.356416
    144 N13        -6.2710    0.4050    1.3170 n         1 MOL     -0.484420
    145 C48        -6.2910    1.8260    1.7390 c3        1 MOL      0.021908
    146 C49        -5.1890    2.5720    0.8340 c         1 MOL      0.355814
    147 O21        -5.2370    3.7620    0.6550 o         1 MOL     -0.549396
    148 C50        -5.8910    1.9250    3.2040 c3        1 MOL      0.054969
    149 C51        -6.9580    1.3830    4.1470 c3        1 MOL     -0.110417
    150 C52        -6.6760    1.6610    5.6300 c         1 MOL      0.679169
    151 O22        -5.6130    1.2220    6.1330 o         1 MOL     -0.737113
    152 O23        -7.5790    2.2180    6.3080 o         1 MOL     -0.737113
    153 H65        -5.7620   -0.2210    1.9270 hn        1 MOL      0.270640
    154 H66        -7.2010    2.3580    1.4770 h1        1 MOL      0.105675
    155 H67        -5.7700    2.9860    3.4350 hc        1 MOL      0.004010
    156 H68        -4.9160    1.4680    3.3790 hc        1 MOL      0.004010
    157 H69        -7.0200    0.3180    3.9580 hc        1 MOL     -0.009889
    158 H70        -7.9120    1.8420    3.8680 hc        1 MOL     -0.009889
    159 N14        -4.2390    1.8730    0.2070 n         1 MOL      0.115019
    160 C53        -3.3510    2.3110   -0.8600 c3        1 MOL     -0.030118
    161 C54        -4.0600    2.2160   -2.2360 c         1 MOL      0.431746
    162 O24        -3.8530    3.1120   -3.0720 o         1 MOL     -0.560697
    163 C55        -2.0410    1.5650   -0.7630 c3        1 MOL      0.108097
    164 C56        -1.1750    2.1380    0.4060 c3        1 MOL     -0.227941
    165 C57        -0.0530    1.0950    0.5820 c         1 MOL      0.836413
    166 O25         1.0950    1.4970    0.7680 o         1 MOL     -0.748769
    167 O26        -0.1950   -0.1570    0.6710 o         1 MOL     -0.748769
    168 H71        -4.4270    0.8860    0.3360 hn        1 MOL     -0.251446
    169 H72        -3.1030    3.3490   -0.6690 h1        1 MOL      0.078332
    170 H73        -1.5630    1.5950   -1.7430 hc        1 MOL      0.050250
    171 H74        -2.2850    0.5400   -0.5020 hc        1 MOL      0.050250
    172 H75        -1.7880    2.0930    1.3090 hc        1 MOL      0.041083
    173 H76        -0.8390    3.1520    0.1830 hc        1 MOL      0.041083
    174 N15        -4.8220    1.1360   -2.5190 n         1 MOL     -0.079024
    175 C58        -5.5220    0.7950   -3.7780 c3        1 MOL     -0.318878
    176 H77        -5.1100   -0.1300   -4.1830 h1        1 MOL      0.107709
    177 H78        -6.5850    0.6620   -3.5780 h1        1 MOL      0.107709
    178 H79        -5.3860    1.6000   -4.5000 h1        1 MOL      0.107709
    179 H80        -4.9880    0.4920   -1.7550 hn        1 MOL      0.116541
    180 Ca1         2.5220   -0.6480    1.1930 Ca        1 MOL      1.750169
    181 O27         1.2790   -0.4900    3.5910 oh        1 MOL     -0.878214
    182 H81         1.7490    0.3280    3.7600 ho        1 MOL      0.410308
    183 H82         0.6510   -0.5560    4.2990 ho        1 MOL      0.410308
@<TRIPOS>BOND
     1    1    2 1   
     2    1    4 1   
     3    1    5 1   
     4    1    6 1   
     5    2    3 2   
     6    2    7 1   
     7    7    8 1   
     8    7   15 1   
     9    8    9 1   
    10    8   11 1   
    11    8   16 1   
    12    9   10 2   
    13    9   19 1   
    14   11   12 1   
    15   11   17 1   
    16   11   18 1   
    17   12   13 1   
    18   12   14 1   
    19   19   20 1   
    20   19   27 1   
    21   20   21 1   
    22   20   23 1   
    23   20   28 1   
    24   21   22 2   
    25   21   38 1   
    26   23   24 1   
    27   23   25 1   
    28   23   29 1   
    29   24   26 1   
    30   24   30 1   
    31   24   31 1   
    32   25   32 1   
    33   25   33 1   
    34   25   34 1   
    35   26   35 1   
    36   26   36 1   
    37   26   37 1   
    38   38   39 1   
    39   38   46 1   
    40   39   40 1   
    41   39   42 1   
    42   39   47 1   
    43   40   41 2   
    44   40   50 1   
    45   42   43 1   
    46   42   48 1   
    47   42   49 1   
    48   43   44 1   
    49   43   45 1   
    50   50   51 1   
    51   50   54 1   
    52   51   52 1   
    53   51   55 1   
    54   51   56 1   
    55   52   53 2   
    56   52   57 1   
    57   57   58 1   
    58   57   65 1   
    59   58   59 1   
    60   58   61 1   
    61   58   66 1   
    62   59   60 2   
    63   59   69 1   
    64   61   62 1   
    65   61   67 1   
    66   61   68 1   
    67   62   63 1   
    68   62   64 1   
    69   69   70 1   
    70   69   73 1   
    71   70   71 1   
    72   70   74 1   
    73   70   75 1   
    74   71   72 2   
    75   71   76 1   
    76   76   77 1   
    77   76   85 1   
    78   77   78 1   
    79   77   80 1   
    80   77   86 1   
    81   78   79 2   
    82   78   93 1   
    83   80   81 1   
    84   80   87 1   
    85   80   88 1   
    86   81   82 1   
    87   81   89 1   
    88   81   90 1   
    89   82   83 1   
    90   82   84 2   
    91   83   91 1   
    92   83   92 1   
    93   93   94 1   
    94   93  100 1   
    95   94   95 1   
    96   94   97 1   
    97   94  101 1   
    98   95   96 2   
    99   95  109 1   
   100   97   98 1   
   101   97   99 1   
   102   97  102 1   
   103   98  103 1   
   104   98  104 1   
   105   98  105 1   
   106   99  106 1   
   107   99  107 1   
   108   99  108 1   
   109  109  110 1   
   110  109  117 1   
   111  110  111 1   
   112  110  113 1   
   113  110  118 1   
   114  111  112 2   
   115  111  123 1   
   116  113  114 1   
   117  113  119 1   
   118  113  120 1   
   119  114  115 1   
   120  114  116 2   
   121  115  121 1   
   122  115  122 1   
   123  123  124 1   
   124  123  135 1   
   125  124  125 1   
   126  124  127 1   
   127  124  136 1   
   128  125  126 2   
   129  125  144 1   
   130  127  128 1   
   131  127  137 1   
   132  127  138 1   
   133  128  129 ar  
   134  128  130 ar  
   135  129  131 ar  
   136  129  139 1   
   137  130  132 ar  
   138  130  140 1   
   139  131  133 ar  
   140  131  141 1   
   141  132  133 ar  
   142  132  142 1   
   143  133  134 1   
   144  134  143 1   
   145  144  145 1   
   146  144  153 1   
   147  145  146 1   
   148  145  148 1   
   149  145  154 1   
   150  146  147 2   
   151  146  159 1   
   152  148  149 1   
   153  148  155 1   
   154  148  156 1   
   155  149  150 1   
   156  149  157 1   
   157  149  158 1   
   158  150  151 1   
   159  150  152 1   
   160  159  160 1   
   161  159  168 1   
   162  160  161 1   
   163  160  163 1   
   164  160  169 1   
   165  161  162 2   
   166  161  174 1   
   167  163  164 1   
   168  163  170 1   
   169  163  171 1   
   170  164  165 1   
   171  164  172 1   
   172  164  173 1   
   173  165  166 1   
   174  165  167 1   
   175  174  175 1   
   176  174  179 1   
   177  175  176 1   
   178  175  177 1   
   179  175  178 1   
   180  181  182 1   
   181  181  183 1   
@<TRIPOS>SUBSTRUCTURE
     1 MOL         1 TEMP              0 ****  ****    0 ROOT
