@<TRIPOS>MOLECULE
MOL
  179   176     1     0     0
SMALL
resp


@<TRIPOS>ATOM
      1 C1          1.3940    2.9960    6.1220 c3        1 MOL     -0.317865
      2 C2          1.0990    2.4260    4.7100 c         1 MOL      0.774694
      3 O1          1.9550    2.1050    3.9190 o         1 MOL     -0.644530
      4 H1          1.4820    4.0810    6.0640 hc        1 MOL      0.083497
      5 H2          0.5810    2.7340    6.7990 hc        1 MOL      0.083497
      6 H3          2.3280    2.5760    6.4960 hc        1 MOL      0.083497
      7 N1         -0.1760    2.2690    4.3280 n         1 MOL     -0.661085
      8 C3         -0.7000    2.1070    2.9800 c3        1 MOL      0.337385
      9 C4         -0.7060    3.5030    2.3350 c         1 MOL      0.545324
     10 O2         -1.2980    4.4450    2.9080 o         1 MOL     -0.582811
     11 C5         -2.1090    1.5530    3.1580 c3        1 MOL     -0.358234
     12 C6         -2.8810    1.3110    1.8790 c         1 MOL      0.902965
     13 O3         -2.3020    1.4900    0.8000 o         1 MOL     -0.741022
     14 O4         -4.0260    0.8210    1.9650 o         1 MOL     -0.741022
     15 H4         -0.8160    2.5900    5.0390 hn        1 MOL      0.310999
     16 H5         -0.0500    1.4590    2.3890 h1        1 MOL     -0.057688
     17 H6         -2.5750    2.2230    3.8730 hc        1 MOL      0.075412
     18 H7         -1.8450    0.5770    3.5480 hc        1 MOL      0.075412
     19 N2         -0.0240    3.6820    1.1880 n         1 MOL     -0.381590
     20 C7          0.3750    4.9290    0.6320 c3        1 MOL     -0.115663
     21 C8         -0.7340    5.6040   -0.1350 c         1 MOL      0.616759
     22 O5         -0.6610    6.8290   -0.2450 o         1 MOL     -0.598395
     23 C9          1.6160    4.7390   -0.2970 c3        1 MOL      0.089785
     24 C10         2.2830    6.0360   -0.7040 c3        1 MOL     -0.233832
     25 C11         3.7500    5.8500   -1.0570 c3        1 MOL      0.193199
     26 C12         4.5150    7.2120   -1.0150 c3        1 MOL     -0.006932
     27 N3          5.8700    7.0310   -1.6130 n4        1 MOL     -0.363083
     28 H8          0.3760    2.8590    0.7690 hn        1 MOL      0.268191
     29 H9          0.6840    5.5670    1.4540 h1        1 MOL      0.117335
     30 H10         1.2620    4.3280   -1.2430 hc        1 MOL      0.052798
     31 H11         2.3510    4.0930    0.1820 hc        1 MOL      0.052798
     32 H12         2.3140    6.7890    0.0910 hc        1 MOL      0.053811
     33 H13         1.8290    6.4500   -1.6110 hc        1 MOL      0.053811
     34 H14         3.8320    5.3500   -2.0180 hc        1 MOL     -0.020093
     35 H15         4.2930    5.1640   -0.3960 hc        1 MOL     -0.020093
     36 H16         4.4810    7.6100   -0.0000 hx        1 MOL      0.094933
     37 H17         4.0460    7.9000   -1.7100 hx        1 MOL      0.094933
     38 H18         5.7860    6.5900   -2.5130 hn        1 MOL      0.327707
     39 H19         6.3010    7.9230   -1.8110 hn        1 MOL      0.327707
     40 H20         6.5300    6.4900   -1.0640 hn        1 MOL      0.327707
     41 N4         -1.7300    4.8490   -0.5910 n         1 MOL     -0.441643
     42 C13        -2.8410    5.4310   -1.3230 c3        1 MOL      0.163901
     43 C14        -4.1850    5.1680   -0.7720 c         1 MOL      0.392084
     44 O6         -5.1440    5.8410   -1.1930 o         1 MOL     -0.533143
     45 C15        -2.7610    5.0290   -2.8350 c3        1 MOL     -0.190730
     46 C16        -2.5290    3.4420   -2.9950 c         1 MOL      0.760963
     47 O7         -2.3910    2.9010   -4.1800 o         1 MOL     -0.753165
     48 O8         -2.2810    2.6850   -2.0500 o         1 MOL     -0.753165
     49 H21        -1.7520    3.8480   -0.6430 hn        1 MOL      0.255179
     50 H22        -2.7710    6.5120   -1.3330 h1        1 MOL      0.058562
     51 H23        -1.8900    5.5630   -3.2080 hc        1 MOL      0.061776
     52 H24        -3.5970    5.4190   -3.4100 hc        1 MOL      0.061776
     53 N5         -4.3050    4.2440    0.1640 n         1 MOL     -0.100961
     54 C17        -5.6350    3.8440    0.7170 c3        1 MOL     -0.088012
     55 C18        -6.3330    2.8360   -0.2210 c         1 MOL      0.583651
     56 O9         -7.1920    3.3060   -0.9460 o         1 MOL     -0.526571
     57 H25        -3.4810    3.8180    0.5500 hn        1 MOL      0.116930
     58 H26        -6.3060    4.6860    0.8600 h1        1 MOL      0.063320
     59 H27        -5.5530    3.4220    1.7170 h1        1 MOL      0.063320
     60 N6         -5.9570    1.5470   -0.2880 n         1 MOL     -0.382517
     61 C19        -6.6380    0.4750   -0.9290 c3        1 MOL      0.059488
     62 C20        -6.7070   -0.7990   -0.1200 c         1 MOL      0.265518
     63 O10        -7.3350   -1.8130   -0.5460 o         1 MOL     -0.457095
     64 C21        -6.2080    0.3170   -2.3540 c3        1 MOL     -0.295578
     65 C22        -4.8860   -0.5050   -2.4120 c         1 MOL      0.608342
     66 N7         -4.8980   -1.5180   -3.1680 n         1 MOL     -0.639346
     67 O11        -3.8350   -0.2190   -1.8020 o         1 MOL     -0.648315
     68 H28        -5.1190    1.3250    0.2460 hn        1 MOL      0.133288
     69 H29        -7.6780    0.8060   -0.9630 h1        1 MOL      0.107558
     70 H30        -5.9540    1.2960   -2.7480 hc        1 MOL      0.135577
     71 H31        -6.9610   -0.1000   -3.0140 hc        1 MOL      0.135577
     72 H32        -5.6740   -1.6110   -3.8060 hn        1 MOL      0.338601
     73 H33        -4.0060   -1.9390   -3.3540 hn        1 MOL      0.338601
     74 N8         -6.1420   -0.7600    1.0550 n         1 MOL     -0.048108
     75 C23        -6.2130   -1.9210    1.9300 c3        1 MOL     -0.458482
     76 C24        -4.9700   -2.9030    1.9210 c         1 MOL      0.627118
     77 O12        -4.9690   -3.9940    2.5560 o         1 MOL     -0.573667
     78 H34        -5.7590    0.1010    1.4340 hn        1 MOL      0.244099
     79 H35        -7.0660   -2.5410    1.6410 h1        1 MOL      0.186378
     80 H36        -6.1990   -1.5570    2.9610 h1        1 MOL      0.186378
     81 N9         -3.9660   -2.5460    1.1660 n         1 MOL     -0.512059
     82 C25        -2.7670   -3.4340    0.9180 c3        1 MOL      0.682220
     83 C26        -1.4150   -2.6990    0.8200 c         1 MOL      0.078818
     84 O13        -1.3180   -1.5140    0.5000 o         1 MOL     -0.587580
     85 C27        -2.8410   -4.2790   -0.3880 c3        1 MOL      0.041918
     86 C28        -4.0600   -5.1820   -0.5410 ca        1 MOL     -0.193260
     87 C29        -5.3400   -4.6570   -0.8660 ca        1 MOL     -0.006072
     88 C30        -3.9450   -6.5670   -0.2470 ca        1 MOL     -0.006072
     89 C31        -6.4520   -5.5260   -0.7900 ca        1 MOL     -0.358913
     90 C32        -5.0330   -7.4240   -0.3690 ca        1 MOL     -0.358913
     91 C33        -6.3160   -6.8760   -0.4930 ca        1 MOL      0.485289
     92 O14        -7.4370   -7.7700   -0.4540 oh        1 MOL     -0.548471
     93 H37        -4.0050   -1.5870    0.8490 hn        1 MOL      0.309779
     94 H38        -2.6950   -4.1290    1.7550 h1        1 MOL     -0.089174
     95 H39        -1.9530   -4.8990   -0.4200 hc        1 MOL     -0.022692
     96 H40        -2.8680   -3.4920   -1.1470 hc        1 MOL     -0.022692
     97 H41        -5.4320   -3.5910   -1.0070 ha        1 MOL      0.088297
     98 H42        -2.9770   -6.9680    0.0270 ha        1 MOL      0.088297
     99 H43        -7.4450   -5.1400   -0.9650 ha        1 MOL      0.159556
    100 H44        -4.9250   -8.4910   -0.2340 ha        1 MOL      0.159556
    101 H45        -7.2220   -8.7020   -0.4730 ho        1 MOL      0.363878
    102 N10        -0.3290   -3.3920    1.1540 n         1 MOL     -0.361699
    103 C34         0.9800   -2.8280    1.2650 c3        1 MOL     -0.036838
    104 C35         1.8860   -3.7180    0.3750 c         1 MOL      0.510218
    105 O15         1.9050   -4.9410    0.5330 o         1 MOL     -0.541371
    106 C36         1.3640   -2.7970    2.7120 c3        1 MOL      0.019715
    107 C37         0.8020   -1.4970    3.4430 c3        1 MOL      0.096804
    108 C38         2.8970   -2.8910    2.7550 c3        1 MOL      0.040880
    109 C39         1.1480   -1.5370    4.8960 c3        1 MOL     -0.372496
    110 H46        -0.5470   -4.3010    1.5200 hn        1 MOL      0.299023
    111 H47         0.8860   -1.8190    0.8450 h1        1 MOL      0.095366
    112 H48         1.0360   -3.6810    3.2590 hc        1 MOL      0.033530
    113 H49        -0.2880   -1.5400    3.3610 hc        1 MOL      0.061574
    114 H50         1.2230   -0.5840    3.0230 hc        1 MOL      0.061574
    115 H51         3.2380   -3.8630    2.3880 hc        1 MOL     -0.023825
    116 H52         3.3520   -2.0070    2.3120 hc        1 MOL     -0.023825
    117 H53         3.2130   -2.9010    3.7980 hc        1 MOL     -0.023825
    118 H54         0.3920   -1.0000    5.4760 hc        1 MOL      0.084353
    119 H55         1.3920   -2.5390    5.2680 hc        1 MOL      0.084353
    120 H56         2.0770   -0.9700    4.9830 hc        1 MOL      0.084353
    121 N11         2.6000   -3.0840   -0.5510 n         1 MOL     -0.319548
    122 C40         3.6590   -3.7900   -1.3100 c3        1 MOL      0.027371
    123 C41         5.0650   -3.6650   -0.6770 c         1 MOL      0.534148
    124 O16         5.2190   -3.0270    0.3550 o         1 MOL     -0.424355
    125 C42         3.6450   -3.2370   -2.7310 c3        1 MOL     -0.218593
    126 O17         4.1200   -1.9100   -2.5390 oh        1 MOL     -0.456346
    127 H57         2.5510   -2.0870   -0.6850 hn        1 MOL      0.394144
    128 H58         3.5560   -4.8770   -1.3410 h1        1 MOL      0.069935
    129 H59         2.5920   -3.2150   -3.0160 h1        1 MOL      0.118426
    130 H60         4.2520   -3.8330   -3.4220 h1        1 MOL      0.118426
    131 H61         3.5730   -1.3250   -3.0720 ho        1 MOL      0.401331
    132 N12         6.1070   -4.3170   -1.1960 n         1 MOL     -0.477651
    133 C43         7.5150   -4.2080   -0.8010 c3        1 MOL      0.147781
    134 C44         7.9480   -2.7140   -0.9310 c         1 MOL      0.338337
    135 O18         8.6920   -2.1060   -0.1470 o         1 MOL     -0.500147
    136 C45         8.3540   -5.1520   -1.6340 c3        1 MOL     -0.251106
    137 H62         5.9730   -4.8410   -2.0560 hn        1 MOL      0.282513
    138 H63         7.6270   -4.4010    0.2740 h1        1 MOL      0.084072
    139 H64         8.0290   -6.1770   -1.4540 hc        1 MOL      0.082981
    140 H65         8.2830   -4.8980   -2.6880 hc        1 MOL      0.082981
    141 H66         9.4210   -5.1290   -1.3950 hc        1 MOL      0.082981
    142 N13         7.3260   -2.0730   -1.9090 n         1 MOL     -0.171778
    143 C46         7.5360   -0.6950   -2.2270 c3        1 MOL      0.036116
    144 C47         6.8780    0.2540   -1.3090 c         1 MOL      0.430950
    145 O19         7.3880    1.3700   -1.1700 o         1 MOL     -0.569548
    146 C48         7.0880   -0.3970   -3.6430 c3        1 MOL     -0.285507
    147 H67         6.8060   -2.6500   -2.5610 hn        1 MOL      0.225779
    148 H68         8.6040   -0.5010   -2.3100 h1        1 MOL      0.097335
    149 H69         7.5180    0.5780   -3.8830 hc        1 MOL      0.072254
    150 H70         7.4550   -1.2260   -4.2470 hc        1 MOL      0.072254
    151 H71         6.0180   -0.2260   -3.7910 hc        1 MOL      0.072254
    152 N14         5.7900   -0.1370   -0.7550 n         1 MOL      0.043269
    153 C49         5.1880    0.6160    0.3770 c3        1 MOL     -0.063267
    154 C50         5.9050    0.3380    1.6870 c         1 MOL      0.348572
    155 O20         6.3520    1.3540    2.3020 o         1 MOL     -0.531769
    156 C51         3.6870    0.3160    0.4520 c3        1 MOL      0.362369
    157 C52         2.9960    1.1160   -0.6410 c3        1 MOL     -0.295417
    158 C53         1.4890    0.7870   -0.7580 c         1 MOL      0.609547
    159 O21         0.6480    1.6280   -0.4750 o         1 MOL     -0.671113
    160 O22         1.1870   -0.3750   -1.1410 o         1 MOL     -0.671113
    161 H72         5.4020   -1.0350   -0.9990 hn        1 MOL     -0.096674
    162 H73         5.2380    1.6880    0.1530 h1        1 MOL      0.062098
    163 H74         3.2620    0.6890    1.3830 hc        1 MOL     -0.027917
    164 H75         3.4530   -0.7500    0.4190 hc        1 MOL     -0.027917
    165 H76         3.4870    0.9280   -1.5920 hc        1 MOL      0.014198
    166 H77         3.1930    2.1420   -0.3260 hc        1 MOL      0.014198
    167 N15         6.2520   -0.8830    2.0410 n         1 MOL     -0.020269
    168 C54         7.0670   -1.1660    3.2370 c3        1 MOL     -0.484197
    169 H78         6.9620   -0.3490    3.9500 h1        1 MOL      0.165213
    170 H79         6.7290   -2.0950    3.6960 h1        1 MOL      0.165213
    171 H80         8.1140   -1.2630    2.9480 h1        1 MOL      0.165213
    172 H81         6.1110   -1.6640    1.4130 hn        1 MOL      0.157545
    173 Ca1        -1.3380    0.4540   -1.3050 Ca        1 MOL      1.758862
    174 O23        -0.9140    0.5010   -3.9360 oh        1 MOL     -0.841036
    175 H82        -1.4320    1.2920   -4.0840 ho        1 MOL      0.402590
    176 H83        -1.0470   -0.0240   -4.7280 ho        1 MOL      0.402590
    177 O24        -0.8320   -1.9140   -2.4170 oh        1 MOL     -0.841036
    178 H84        -1.4620   -2.4670   -2.8890 ho        1 MOL      0.402590
    179 H85        -0.1140   -2.5030   -2.1990 ho        1 MOL      0.402590
@<TRIPOS>BOND
     1    1    2 1   
     2    1    4 1   
     3    1    5 1   
     4    1    6 1   
     5    2    3 2   
     6    2    7 1   
     7    7    8 1   
     8    7   15 1   
     9    8    9 1   
    10    8   11 1   
    11    8   16 1   
    12    9   10 2   
    13    9   19 1   
    14   11   12 1   
    15   11   17 1   
    16   11   18 1   
    17   12   13 1   
    18   12   14 1   
    19   19   20 1   
    20   19   28 1   
    21   20   21 1   
    22   20   23 1   
    23   20   29 1   
    24   21   22 2   
    25   21   41 1   
    26   23   24 1   
    27   23   30 1   
    28   23   31 1   
    29   24   25 1   
    30   24   32 1   
    31   24   33 1   
    32   25   26 1   
    33   25   34 1   
    34   25   35 1   
    35   26   27 1   
    36   26   36 1   
    37   26   37 1   
    38   27   38 1   
    39   27   39 1   
    40   27   40 1   
    41   41   42 1   
    42   41   49 1   
    43   42   43 1   
    44   42   45 1   
    45   42   50 1   
    46   43   44 2   
    47   43   53 1   
    48   45   46 1   
    49   45   51 1   
    50   45   52 1   
    51   46   47 1   
    52   46   48 1   
    53   53   54 1   
    54   53   57 1   
    55   54   55 1   
    56   54   58 1   
    57   54   59 1   
    58   55   56 2   
    59   55   60 1   
    60   60   61 1   
    61   60   68 1   
    62   61   62 1   
    63   61   64 1   
    64   61   69 1   
    65   62   63 2   
    66   62   74 1   
    67   64   65 1   
    68   64   70 1   
    69   64   71 1   
    70   65   66 1   
    71   65   67 2   
    72   66   72 1   
    73   66   73 1   
    74   74   75 1   
    75   74   78 1   
    76   75   76 1   
    77   75   79 1   
    78   75   80 1   
    79   76   77 2   
    80   76   81 1   
    81   81   82 1   
    82   81   93 1   
    83   82   83 1   
    84   82   85 1   
    85   82   94 1   
    86   83   84 2   
    87   83  102 1   
    88   85   86 1   
    89   85   95 1   
    90   85   96 1   
    91   86   87 ar  
    92   86   88 ar  
    93   87   89 ar  
    94   87   97 1   
    95   88   90 ar  
    96   88   98 1   
    97   89   91 ar  
    98   89   99 1   
    99   90   91 ar  
   100   90  100 1   
   101   91   92 1   
   102   92  101 1   
   103  102  103 1   
   104  102  110 1   
   105  103  104 1   
   106  103  106 1   
   107  103  111 1   
   108  104  105 2   
   109  104  121 1   
   110  106  107 1   
   111  106  108 1   
   112  106  112 1   
   113  107  109 1   
   114  107  113 1   
   115  107  114 1   
   116  108  115 1   
   117  108  116 1   
   118  108  117 1   
   119  109  118 1   
   120  109  119 1   
   121  109  120 1   
   122  121  122 1   
   123  121  127 1   
   124  122  123 1   
   125  122  125 1   
   126  122  128 1   
   127  123  124 2   
   128  123  132 1   
   129  125  126 1   
   130  125  129 1   
   131  125  130 1   
   132  126  131 1   
   133  132  133 1   
   134  132  137 1   
   135  133  134 1   
   136  133  136 1   
   137  133  138 1   
   138  134  135 2   
   139  134  142 1   
   140  136  139 1   
   141  136  140 1   
   142  136  141 1   
   143  142  143 1   
   144  142  147 1   
   145  143  144 1   
   146  143  146 1   
   147  143  148 1   
   148  144  145 2   
   149  144  152 1   
   150  146  149 1   
   151  146  150 1   
   152  146  151 1   
   153  152  153 1   
   154  152  161 1   
   155  153  154 1   
   156  153  156 1   
   157  153  162 1   
   158  154  155 2   
   159  154  167 1   
   160  156  157 1   
   161  156  163 1   
   162  156  164 1   
   163  157  158 1   
   164  157  165 1   
   165  157  166 1   
   166  158  159 1   
   167  158  160 1   
   168  167  168 1   
   169  167  172 1   
   170  168  169 1   
   171  168  170 1   
   172  168  171 1   
   173  174  175 1   
   174  174  176 1   
   175  177  178 1   
   176  177  179 1   
@<TRIPOS>SUBSTRUCTURE
     1 MOL         1 TEMP              0 ****  ****    0 ROOT
