@<TRIPOS>MOLECULE
MOL
  189   185     1     0     0
SMALL
resp


@<TRIPOS>ATOM
      1 C1         -0.3100    1.4640    6.3850 c3        1 MOL     -0.344015
      2 C2         -0.6590    1.3590    4.8740 c         1 MOL      0.767196
      3 O1          0.2650    1.6410    4.1000 o         1 MOL     -0.625894
      4 H1          0.7620    1.3190    6.5200 hc        1 MOL      0.085048
      5 H2         -0.5920    2.4500    6.7560 hc        1 MOL      0.085048
      6 H3         -0.8530    0.6980    6.9380 hc        1 MOL      0.085048
      7 N1         -1.8740    0.9590    4.5120 n         1 MOL     -0.710540
      8 C3         -2.4500    1.0670    3.1620 c3        1 MOL      0.140448
      9 C4         -2.8470    2.5020    2.7500 c         1 MOL      0.628345
     10 O2         -3.8110    3.0420    3.2910 o         1 MOL     -0.564849
     11 C5         -3.6480    0.1070    3.0190 c3        1 MOL     -0.014407
     12 C6         -4.2550    0.0800    1.6260 c         1 MOL      0.689054
     13 O3         -5.4960   -0.2520    1.5090 o         1 MOL     -0.681723
     14 O4         -3.6480    0.6500    0.6980 o         1 MOL     -0.681723
     15 H4         -2.5270    0.7130    5.2380 hn        1 MOL      0.362185
     16 H5         -1.7730    0.6590    2.4120 h1        1 MOL     -0.022280
     17 H6         -4.4300    0.3370    3.7320 hc        1 MOL      0.001881
     18 H7         -3.3470   -0.9170    3.2340 hc        1 MOL      0.001881
     19 N2         -2.0490    3.1570    1.8550 n         1 MOL     -0.232347
     20 C7         -1.9210    4.6270    1.7520 c3        1 MOL     -0.226203
     21 C8         -2.8240    5.2830    0.7220 c         1 MOL      0.512895
     22 O5         -2.9450    6.5270    0.5850 o         1 MOL     -0.562103
     23 C9         -0.4550    5.0650    1.5200 c3        1 MOL     -0.176892
     24 C10         0.0060    4.6370    0.0920 c3        1 MOL      0.056215
     25 C11         1.4850    4.7940   -0.0400 c3        1 MOL     -0.147046
     26 C12         1.9740    4.2680   -1.3790 c3        1 MOL      0.376296
     27 N3          3.3410    4.6930   -1.5740 n4        1 MOL     -0.608354
     28 H8         -1.4570    2.6030    1.2590 hn        1 MOL      0.220679
     29 H9         -2.1140    5.0810    2.7310 h1        1 MOL      0.140841
     30 H10         0.0270    4.4560    2.2810 hc        1 MOL      0.102939
     31 H11        -0.3250    6.1300    1.7110 hc        1 MOL      0.102939
     32 H12        -0.4450    5.2650   -0.6770 hc        1 MOL      0.035461
     33 H13        -0.2650    3.5860   -0.0290 hc        1 MOL      0.035461
     34 H14         1.9540    4.2180    0.7590 hc        1 MOL      0.032672
     35 H15         1.6750    5.8670    0.0350 hc        1 MOL      0.032672
     36 H16         1.3110    4.5890   -2.1810 hx        1 MOL     -0.015504
     37 H17         1.8840    3.1800   -1.3420 hx        1 MOL     -0.015504
     38 H18         3.7590    4.1890   -2.3480 hn        1 MOL      0.370208
     39 H19         3.2720    5.6580   -1.8870 hn        1 MOL      0.370208
     40 H20         3.8850    4.5810   -0.7340 hn        1 MOL      0.370208
     41 N4         -3.4210    4.4300   -0.1350 n         1 MOL     -0.267808
     42 C13        -4.4680    4.7530   -1.1130 c3        1 MOL     -0.130632
     43 C14        -5.7750    3.9770   -0.9600 c         1 MOL      0.471572
     44 O6         -6.7580    4.4090   -1.4980 o         1 MOL     -0.523449
     45 C15        -3.8590    4.5180   -2.5150 c3        1 MOL     -0.228454
     46 C16        -3.0050    3.2980   -2.6490 c         1 MOL      0.849074
     47 O7         -2.2680    3.3210   -3.6510 o         1 MOL     -0.745711
     48 O8         -3.0500    2.3230   -1.8280 o         1 MOL     -0.745711
     49 H21        -3.1760    3.4530   -0.0220 hn        1 MOL      0.113354
     50 H22        -4.5820    5.8340   -1.0910 h1        1 MOL      0.146175
     51 H23        -3.3100    5.4490   -2.6690 hc        1 MOL      0.086209
     52 H24        -4.6420    4.4950   -3.2740 hc        1 MOL      0.086209
     53 N5         -5.8530    2.8800   -0.1850 n         1 MOL     -0.006267
     54 C17        -7.1120    2.1790    0.1160 c3        1 MOL     -0.219541
     55 C18        -7.5630    1.1690   -0.9500 c         1 MOL      0.761192
     56 O9         -8.3410    1.5330   -1.8060 o         1 MOL     -0.548431
     57 H25        -5.0420    2.6350    0.3630 hn        1 MOL      0.118824
     58 H26        -7.8510    2.9740    0.1860 h1        1 MOL      0.074769
     59 H27        -7.1620    1.7150    1.1040 h1        1 MOL      0.074769
     60 N6         -7.0130   -0.0590   -0.8520 n         1 MOL     -0.696124
     61 C19        -7.2070   -1.1710   -1.7610 c3        1 MOL      0.034523
     62 C20        -7.0960   -2.5260   -1.0410 c         1 MOL      0.410222
     63 O10        -6.9560   -3.5600   -1.6570 o         1 MOL     -0.487732
     64 C21        -6.2680   -1.0590   -2.9070 c3        1 MOL     -0.201874
     65 C22        -4.8130   -0.8890   -2.5390 c         1 MOL      0.745653
     66 O11        -4.0880   -0.1380   -3.2390 o         1 MOL     -0.721860
     67 O12        -4.2740   -1.5000   -1.5740 o         1 MOL     -0.721860
     68 H28        -6.3400   -0.1960   -0.0990 hn        1 MOL      0.319102
     69 H29        -8.2210   -1.1460   -2.1590 h1        1 MOL      0.110018
     70 H30        -6.5170   -0.0840   -3.3180 hc        1 MOL      0.085305
     71 H31        -6.4300   -1.7400   -3.7390 hc        1 MOL      0.085305
     72 N7         -6.9910   -2.5340    0.3070 n         1 MOL     -0.220289
     73 C23        -6.8390   -3.7890    1.0560 c3        1 MOL     -0.402272
     74 C24        -5.3860   -4.3570    0.9220 c         1 MOL      0.719985
     75 O13        -5.1580   -5.5050    1.2730 o         1 MOL     -0.594330
     76 H32        -7.0150   -1.6680    0.8230 hn        1 MOL      0.268524
     77 H33        -7.4460   -4.5090    0.5180 h1        1 MOL      0.170911
     78 H34        -7.1200   -3.5830    2.0910 h1        1 MOL      0.170911
     79 N8         -4.3660   -3.6410    0.3970 n         1 MOL     -0.644987
     80 C25        -3.1390   -4.2790   -0.1550 c3        1 MOL      0.184150
     81 C26        -1.9140   -3.4750    0.1700 c         1 MOL      0.618286
     82 O14        -1.8130   -2.3240   -0.1830 o         1 MOL     -0.654577
     83 C27        -3.2550   -4.4340   -1.7070 c3        1 MOL      0.359910
     84 C28        -2.0050   -5.1960   -2.2400 c3        1 MOL     -0.221333
     85 O15        -4.4450   -5.1560   -2.0630 oh        1 MOL     -0.582778
     86 H35        -4.5650   -2.6720    0.1720 hn        1 MOL      0.330140
     87 H36        -3.0360   -5.2490    0.3250 h1        1 MOL      0.040807
     88 H37        -3.2930   -3.4400   -2.1530 h1        1 MOL      0.001233
     89 H38        -5.0580   -4.4410   -1.8630 ho        1 MOL      0.349259
     90 H39        -2.0770   -5.4080   -3.3080 hc        1 MOL      0.048618
     91 H40        -1.1030   -4.6300   -2.0240 hc        1 MOL      0.048618
     92 H41        -1.8920   -6.1320   -1.6880 hc        1 MOL      0.048618
     93 N9         -0.9100   -4.0710    0.7960 n         1 MOL     -0.678774
     94 C29         0.4720   -3.3990    1.0650 c3        1 MOL      0.197847
     95 C30         1.5180   -3.7480    0.0580 c         1 MOL      0.533539
     96 O16         1.8840   -4.8970   -0.1090 o         1 MOL     -0.577986
     97 C31         0.8910   -3.7010    2.6340 c3        1 MOL     -0.072920
     98 C32        -0.0130   -2.6730    3.4810 c3        1 MOL      0.092707
     99 C33         2.4250   -3.4700    2.8260 c3        1 MOL     -0.086573
    100 C34         0.3070   -2.9870    4.9510 c3        1 MOL     -0.247044
    101 H42        -1.0140   -5.0680    0.9230 hn        1 MOL      0.335737
    102 H43         0.4130   -2.3100    1.0260 h1        1 MOL      0.028196
    103 H44         0.5960   -4.7110    2.9090 hc        1 MOL      0.064536
    104 H45        -1.0640   -2.8660    3.3250 hc        1 MOL      0.041466
    105 H46         0.2480   -1.6420    3.2440 hc        1 MOL      0.041466
    106 H47         3.0500   -4.1210    2.2180 hc        1 MOL      0.019553
    107 H48         2.7130   -2.4540    2.5470 hc        1 MOL      0.019553
    108 H49         2.7930   -3.7540    3.8060 hc        1 MOL      0.019553
    109 H50         0.3490   -4.0530    5.2080 hc        1 MOL      0.051764
    110 H51         1.2920   -2.5450    5.1050 hc        1 MOL      0.051764
    111 H52        -0.5010   -2.6280    5.5860 hc        1 MOL      0.051764
    112 N10         2.0410   -2.7080   -0.5500 n         1 MOL     -0.040309
    113 C35         3.2100   -2.6550   -1.4640 c3        1 MOL     -0.196316
    114 C36         4.5910   -2.6420   -0.7860 c         1 MOL      0.412576
    115 O17         4.5900   -2.3880    0.4110 o         1 MOL     -0.322101
    116 C37         3.0540   -1.4980   -2.3700 c3        1 MOL      0.205144
    117 C38         1.7860   -1.5710   -3.2450 c3        1 MOL     -0.482349
    118 O18         3.0790   -0.3270   -1.6370 oh        1 MOL     -0.465385
    119 H53         1.6400   -1.7980   -0.3350 hn        1 MOL     -0.048441
    120 H54         3.1310   -3.5560   -2.0800 h1        1 MOL      0.097789
    121 H55         3.9150   -1.4210   -3.0320 h1        1 MOL      0.025447
    122 H56         2.1880   -0.3770   -1.2890 ho        1 MOL      0.290330
    123 H57         0.8380   -1.5530   -2.7160 hc        1 MOL      0.159638
    124 H58         1.7990   -0.7370   -3.9520 hc        1 MOL      0.159638
    125 H59         1.7230   -2.5100   -3.7940 hc        1 MOL      0.159638
    126 N11         5.7050   -2.8550   -1.4660 n         1 MOL     -0.361111
    127 C39         7.0940   -2.6970   -0.9060 c3        1 MOL     -0.012028
    128 C40         7.3080   -1.3510   -0.2590 c         1 MOL      0.309681
    129 O19         7.7970   -1.3110    0.8860 o         1 MOL     -0.484380
    130 C41         8.2320   -2.8160   -1.9540 c3        1 MOL      0.230543
    131 C42         8.3460   -4.3120   -2.4130 c3        1 MOL     -0.322886
    132 O20         7.9840   -1.9850   -3.1230 oh        1 MOL     -0.651013
    133 H60         5.5450   -3.1260   -2.4320 hn        1 MOL      0.298050
    134 H61         7.2860   -3.4040   -0.0930 h1        1 MOL      0.137055
    135 H62         9.1740   -2.4930   -1.5200 h1        1 MOL      0.056607
    136 H63         8.8160   -2.0100   -3.6020 ho        1 MOL      0.421410
    137 H64         9.0680   -4.2700   -3.2290 hc        1 MOL      0.101720
    138 H65         8.7380   -4.8990   -1.5870 hc        1 MOL      0.101720
    139 H66         7.3790   -4.7280   -2.7070 hc        1 MOL      0.101720
    140 N12         6.8900   -0.2380   -0.8390 n         1 MOL     -0.309535
    141 C43         6.9570    1.0730   -0.1920 c3        1 MOL      0.116517
    142 C44         6.0430    1.3630    1.0280 c         1 MOL      0.288480
    143 O21         6.3430    2.1690    1.9420 o         1 MOL     -0.489216
    144 C45         6.6840    2.2240   -1.1390 c3        1 MOL     -0.250755
    145 C46         7.4900    2.1210   -2.4380 c3        1 MOL      0.038854
    146 C47         8.9910    2.5300   -2.2280 c3        1 MOL     -0.040202
    147 C48         9.3290    4.0150   -2.0680 c3        1 MOL      0.069976
    148 N13        10.7960    4.1720   -1.9450 n4        1 MOL     -0.253073
    149 H67         6.5100   -0.3610   -1.7610 hn        1 MOL      0.338686
    150 H68         7.9390    1.2850    0.2230 h1        1 MOL      0.096858
    151 H69         6.8310    3.1690   -0.6130 hc        1 MOL      0.064174
    152 H70         5.6500    2.1120   -1.4610 hc        1 MOL      0.064174
    153 H71         7.0400    2.7670   -3.1850 hc        1 MOL      0.016487
    154 H72         7.3930    1.1180   -2.8430 hc        1 MOL      0.016487
    155 H73         9.5330    2.1590   -3.1000 hc        1 MOL      0.017037
    156 H74         9.3480    2.0280   -1.3340 hc        1 MOL      0.017037
    157 H75         8.8330    4.3780   -1.1710 hx        1 MOL      0.072761
    158 H76         8.8240    4.4830   -2.9160 hx        1 MOL      0.072761
    159 H77        11.3070    3.6590   -2.6550 hn        1 MOL      0.277781
    160 H78        11.1730    5.1060   -1.9650 hn        1 MOL      0.277781
    161 H79        11.0560    3.6700   -1.1150 hn        1 MOL      0.277781
    162 N14         4.8490    0.7740    0.9830 n         1 MOL     -0.044546
    163 C49         3.9270    0.6920    2.0680 c3        1 MOL     -0.059472
    164 C50         4.4180   -0.0730    3.3220 c         1 MOL      0.398768
    165 O22         4.4670    0.4190    4.4900 o         1 MOL     -0.528546
    166 C51         2.5390    0.2420    1.5910 c3        1 MOL      0.264274
    167 C52         1.8640    1.2300    0.6930 c3        1 MOL     -0.239826
    168 C53         0.4940    0.7290    0.1930 c         1 MOL      0.884331
    169 O23         0.4860   -0.2640   -0.6310 o         1 MOL     -0.709492
    170 O24        -0.5700    1.2400    0.5210 o         1 MOL     -0.709492
    171 H80         4.6340    0.2560    0.1370 hn        1 MOL      0.040442
    172 H81         3.7550    1.7270    2.3920 h1        1 MOL      0.062723
    173 H82         2.0270    0.1160    2.5490 hc        1 MOL     -0.008042
    174 H83         2.6600   -0.7470    1.1560 hc        1 MOL     -0.008042
    175 H84         2.4040    1.4700   -0.2210 hc        1 MOL      0.006058
    176 H85         1.7720    2.1570    1.2600 hc        1 MOL      0.006058
    177 N15         5.0640   -1.1950    3.0340 n         1 MOL      0.073143
    178 C54         5.9050   -2.0060    3.8890 c3        1 MOL     -0.465444
    179 H86         6.9500   -1.7390    3.7270 h1        1 MOL      0.151350
    180 H87         5.6420   -1.8280    4.9310 h1        1 MOL      0.151350
    181 H88         5.7580   -3.0590    3.6510 h1        1 MOL      0.151350
    182 H89         5.0210   -1.4950    2.0660 hn        1 MOL      0.074926
    183 Ca1        -2.0860    0.0270   -1.2250 Ca        1 MOL      1.770091
    184 O25        -1.7420   -1.7680   -3.5650 oh        1 MOL     -0.892156
    185 H90        -2.5890   -1.3200   -3.6860 ho        1 MOL      0.407574
    186 H91        -1.6980   -2.3930   -4.2870 ho        1 MOL      0.407574
    187 O26        -0.5890    1.1720   -3.1190 oh        1 MOL     -0.892156
    188 H92        -1.1050    1.9650   -3.2920 ho        1 MOL      0.407574
    189 H93        -0.0820    1.0370   -3.9190 ho        1 MOL      0.407574
@<TRIPOS>BOND
     1    1    2 1   
     2    1    4 1   
     3    1    5 1   
     4    1    6 1   
     5    2    3 2   
     6    2    7 1   
     7    7    8 1   
     8    7   15 1   
     9    8    9 1   
    10    8   11 1   
    11    8   16 1   
    12    9   10 2   
    13    9   19 1   
    14   11   12 1   
    15   11   17 1   
    16   11   18 1   
    17   12   13 1   
    18   12   14 1   
    19   19   20 1   
    20   19   28 1   
    21   20   21 1   
    22   20   23 1   
    23   20   29 1   
    24   21   22 2   
    25   21   41 1   
    26   23   24 1   
    27   23   30 1   
    28   23   31 1   
    29   24   25 1   
    30   24   32 1   
    31   24   33 1   
    32   25   26 1   
    33   25   34 1   
    34   25   35 1   
    35   26   27 1   
    36   26   36 1   
    37   26   37 1   
    38   27   38 1   
    39   27   39 1   
    40   27   40 1   
    41   41   42 1   
    42   41   49 1   
    43   42   43 1   
    44   42   45 1   
    45   42   50 1   
    46   43   44 2   
    47   43   53 1   
    48   45   46 1   
    49   45   51 1   
    50   45   52 1   
    51   46   47 1   
    52   46   48 1   
    53   53   54 1   
    54   53   57 1   
    55   54   55 1   
    56   54   58 1   
    57   54   59 1   
    58   55   56 2   
    59   55   60 1   
    60   60   61 1   
    61   60   68 1   
    62   61   62 1   
    63   61   64 1   
    64   61   69 1   
    65   62   63 2   
    66   62   72 1   
    67   64   65 1   
    68   64   70 1   
    69   64   71 1   
    70   65   66 1   
    71   65   67 1   
    72   72   73 1   
    73   72   76 1   
    74   73   74 1   
    75   73   77 1   
    76   73   78 1   
    77   74   75 2   
    78   74   79 1   
    79   79   80 1   
    80   79   86 1   
    81   80   81 1   
    82   80   83 1   
    83   80   87 1   
    84   81   82 2   
    85   81   93 1   
    86   83   84 1   
    87   83   85 1   
    88   83   88 1   
    89   84   90 1   
    90   84   91 1   
    91   84   92 1   
    92   85   89 1   
    93   93   94 1   
    94   93  101 1   
    95   94   95 1   
    96   94   97 1   
    97   94  102 1   
    98   95   96 2   
    99   95  112 1   
   100   97   98 1   
   101   97   99 1   
   102   97  103 1   
   103   98  100 1   
   104   98  104 1   
   105   98  105 1   
   106   99  106 1   
   107   99  107 1   
   108   99  108 1   
   109  100  109 1   
   110  100  110 1   
   111  100  111 1   
   112  112  113 1   
   113  112  119 1   
   114  113  114 1   
   115  113  116 1   
   116  113  120 1   
   117  114  115 2   
   118  114  126 1   
   119  116  117 1   
   120  116  118 1   
   121  116  121 1   
   122  117  123 1   
   123  117  124 1   
   124  117  125 1   
   125  118  122 1   
   126  126  127 1   
   127  126  133 1   
   128  127  128 1   
   129  127  130 1   
   130  127  134 1   
   131  128  129 2   
   132  128  140 1   
   133  130  131 1   
   134  130  132 1   
   135  130  135 1   
   136  131  137 1   
   137  131  138 1   
   138  131  139 1   
   139  132  136 1   
   140  140  141 1   
   141  140  149 1   
   142  141  142 1   
   143  141  144 1   
   144  141  150 1   
   145  142  143 2   
   146  142  162 1   
   147  144  145 1   
   148  144  151 1   
   149  144  152 1   
   150  145  146 1   
   151  145  153 1   
   152  145  154 1   
   153  146  147 1   
   154  146  155 1   
   155  146  156 1   
   156  147  148 1   
   157  147  157 1   
   158  147  158 1   
   159  148  159 1   
   160  148  160 1   
   161  148  161 1   
   162  162  163 1   
   163  162  171 1   
   164  163  164 1   
   165  163  166 1   
   166  163  172 1   
   167  164  165 2   
   168  164  177 1   
   169  166  167 1   
   170  166  173 1   
   171  166  174 1   
   172  167  168 1   
   173  167  175 1   
   174  167  176 1   
   175  168  169 1   
   176  168  170 1   
   177  177  178 1   
   178  177  182 1   
   179  178  179 1   
   180  178  180 1   
   181  178  181 1   
   182  184  185 1   
   183  184  186 1   
   184  187  188 1   
   185  187  189 1   
@<TRIPOS>SUBSTRUCTURE
     1 MOL         1 TEMP              0 ****  ****    0 ROOT
