@<TRIPOS>MOLECULE
MOL
  186   183     1     0     0
SMALL
resp


@<TRIPOS>ATOM
      1 C1          0.7860   -1.1510    6.4580 c3        1 MOL     -0.327958
      2 C2          1.0920   -1.3130    4.8930 c         1 MOL      0.680482
      3 O1          0.1600   -1.5180    4.0920 o         1 MOL     -0.540479
      4 H1         -0.2650   -1.3690    6.6470 hc        1 MOL      0.076395
      5 H2          1.4080   -1.8440    7.0240 hc        1 MOL      0.076395
      6 H3          1.0060   -0.1290    6.7680 hc        1 MOL      0.076395
      7 N1          2.3650   -1.1600    4.5620 n         1 MOL     -0.667236
      8 C3          2.9040   -1.2560    3.1940 c3        1 MOL      0.248793
      9 C4          3.3080   -2.7030    2.9460 c         1 MOL      0.606436
     10 O2          4.0880   -3.3140    3.6990 o         1 MOL     -0.589975
     11 C5          4.0490   -0.2430    2.9620 c3        1 MOL     -0.379642
     12 C6          4.7560   -0.3000    1.6280 c         1 MOL      0.847079
     13 O3          5.9910   -0.0510    1.6930 o         1 MOL     -0.671554
     14 O4          4.1810   -0.6930    0.5870 o         1 MOL     -0.671554
     15 H4          2.9000   -0.7380    5.3060 hn        1 MOL      0.342080
     16 H5          2.1770   -0.9350    2.4600 h1        1 MOL      0.023778
     17 H6          4.7740   -0.3770    3.7650 hc        1 MOL      0.078764
     18 H7          3.5450    0.7280    3.0510 hc        1 MOL      0.078764
     19 N2          2.7070   -3.3060    1.9440 n         1 MOL     -0.369730
     20 C7          2.9040   -4.6990    1.5560 c3        1 MOL     -0.018128
     21 C8          4.0700   -4.9800    0.5880 c         1 MOL      0.516060
     22 O5          5.0130   -5.6820    0.8860 o         1 MOL     -0.580884
     23 C9          1.5430   -5.3650    1.0550 c3        1 MOL      0.225000
     24 C10         0.6190   -5.5190    2.2250 c3        1 MOL      0.200862
     25 C11         1.6270   -6.7530    0.3600 c3        1 MOL     -0.405783
     26 C12        -0.7940   -6.1030    1.9840 c3        1 MOL     -0.155938
     27 H8          2.0280   -2.8200    1.3770 hn        1 MOL      0.189995
     28 H9          3.1120   -5.2790    2.4580 h1        1 MOL      0.027498
     29 H10         1.0230   -4.6910    0.3790 hc        1 MOL      0.010641
     30 H11         0.4820   -4.5340    2.6740 hc        1 MOL     -0.059463
     31 H12         1.0650   -6.1850    2.9640 hc        1 MOL     -0.059463
     32 H13         0.6590   -6.9400   -0.1210 hc        1 MOL      0.081483
     33 H14         2.2630   -6.6470   -0.5200 hc        1 MOL      0.081483
     34 H15         2.0470   -7.5780    0.9300 hc        1 MOL      0.081483
     35 H16        -1.3530   -5.9700    2.9090 hc        1 MOL      0.026245
     36 H17        -1.3440   -5.5860    1.1930 hc        1 MOL      0.026245
     37 H18        -0.7370   -7.1780    1.7730 hc        1 MOL      0.026245
     38 N3          4.0280   -4.3470   -0.5710 n         1 MOL     -0.235515
     39 C13         4.9270   -4.5330   -1.7410 c3        1 MOL      0.009012
     40 C14         6.1700   -3.5870   -1.7580 c         1 MOL      0.439366
     41 O6          7.0700   -3.8120   -2.5160 o         1 MOL     -0.555636
     42 C15         4.0340   -4.3000   -3.0350 c3        1 MOL     -0.333202
     43 C16         3.2940   -2.9770   -3.1320 c         1 MOL      0.849901
     44 O7          3.3730   -2.1260   -2.2210 o         1 MOL     -0.727394
     45 O8          2.5810   -2.7190   -4.1220 o         1 MOL     -0.727394
     46 H19         3.2580   -3.7510   -0.8350 hn        1 MOL      0.173054
     47 H20         5.2820   -5.5640   -1.7030 h1        1 MOL      0.072737
     48 H21         3.2770   -5.0780   -3.0580 hc        1 MOL      0.085018
     49 H22         4.6580   -4.3280   -3.9200 hc        1 MOL      0.085018
     50 N4          6.2640   -2.5180   -1.0000 n         1 MOL     -0.011299
     51 C17         7.5880   -2.0060   -0.6600 c3        1 MOL     -0.255169
     52 C18         7.8920   -0.7840   -1.5510 c         1 MOL      0.697192
     53 O9          8.8720   -0.6760   -2.2290 o         1 MOL     -0.603864
     54 H23         5.5530   -2.2330   -0.3480 hn        1 MOL      0.130916
     55 H24         8.4030   -2.7200   -0.6390 h1        1 MOL      0.091051
     56 H25         7.4830   -1.7850    0.4050 h1        1 MOL      0.091051
     57 N5          7.0460    0.1910   -1.3260 n         1 MOL     -0.387429
     58 C19         7.2100    1.5620   -1.8210 c3        1 MOL      0.121439
     59 C20         7.1800    2.7000   -0.8390 c         1 MOL      0.416209
     60 O10         7.4890    3.8400   -1.1680 o         1 MOL     -0.557588
     61 C21         6.1750    1.7300   -2.9520 c3        1 MOL     -0.162706
     62 C22         4.6940    1.5320   -2.4870 c         1 MOL      0.702975
     63 O11         4.4180    1.7470   -1.2860 o         1 MOL     -0.726680
     64 O12         3.8020    1.0440   -3.2070 o         1 MOL     -0.726680
     65 H26         6.2070   -0.0410   -0.8130 hn        1 MOL      0.053956
     66 H27         8.1190    1.7090   -2.3950 h1        1 MOL      0.062491
     67 H28         6.3620    1.0400   -3.7860 hc        1 MOL      0.045073
     68 H29         6.2520    2.7180   -3.3950 hc        1 MOL      0.045073
     69 N6          6.7950    2.3960    0.3990 n         1 MOL     -0.251113
     70 C23         6.5800    3.4170    1.4360 c3        1 MOL     -0.114092
     71 C24         5.3360    4.2760    1.3580 c         1 MOL      0.501807
     72 O13         5.3060    5.3340    1.9370 o         1 MOL     -0.589444
     73 H30         6.4660    1.4840    0.6810 hn        1 MOL      0.200512
     74 H31         7.4760    4.0230    1.5550 h1        1 MOL      0.087967
     75 H32         6.4880    2.9540    2.4220 h1        1 MOL      0.087967
     76 N7          4.3050    3.9180    0.5940 n         1 MOL     -0.220252
     77 C25         2.9080    4.4080    0.6940 c3        1 MOL      0.005009
     78 C26         1.8800    3.2920    0.8930 c         1 MOL      0.453072
     79 O14         2.0790    2.1020    0.5340 o         1 MOL     -0.645278
     80 C27         2.4700    5.3470   -0.4740 c3        1 MOL     -0.067882
     81 C28         3.1360    6.7190   -0.3320 c3        1 MOL     -0.355416
     82 C29         2.2740    7.7640   -1.0480 c         1 MOL      0.649730
     83 N8          2.4590    8.0720   -2.3380 n         1 MOL     -0.805434
     84 O15         1.3610    8.3430   -0.4470 o         1 MOL     -0.566771
     85 H33         4.3910    3.0820    0.0350 hn        1 MOL      0.212730
     86 H34         2.7930    5.0060    1.6010 h1        1 MOL      0.059551
     87 H35         1.3810    5.4630   -0.4310 hc        1 MOL      0.077496
     88 H36         2.6790    4.8680   -1.4250 hc        1 MOL      0.077496
     89 H37         4.1790    6.7650   -0.6770 hc        1 MOL      0.122627
     90 H38         3.2330    7.0410    0.6950 hc        1 MOL      0.122627
     91 H39         3.2710    7.6230   -2.7430 hn        1 MOL      0.367775
     92 H40         1.8070    8.6980   -2.7820 hn        1 MOL      0.367775
     93 N9          0.7200    3.7410    1.3480 n         1 MOL     -0.275925
     94 C30        -0.3630    2.7990    1.5900 c3        1 MOL      0.069575
     95 C31        -1.4910    3.1450    0.6440 c         1 MOL      0.250304
     96 O16        -2.0850    4.2370    0.7140 o         1 MOL     -0.545861
     97 C32        -0.8590    2.8280    3.0750 c3        1 MOL      0.341297
     98 C33        -1.8960    1.6830    3.3310 c3        1 MOL     -0.329924
     99 C34         0.2420    2.5760    4.0460 c3        1 MOL     -0.329924
    100 H41         0.6720    4.7110    1.6270 hn        1 MOL      0.249562
    101 H42         0.0040    1.8070    1.3480 h1        1 MOL      0.152689
    102 H43        -1.2110    3.8380    3.2650 hc        1 MOL     -0.051647
    103 H44        -2.8690    1.8370    2.8630 hc        1 MOL      0.060962
    104 H45        -1.4550    0.7420    3.0100 hc        1 MOL      0.060962
    105 H46        -2.1560    1.6440    4.3940 hc        1 MOL      0.060962
    106 H47        -0.2240    2.4960    5.0310 hc        1 MOL      0.060962
    107 H48         0.8000    1.6860    3.7660 hc        1 MOL      0.060962
    108 H49         1.0360    3.3260    4.0470 hc        1 MOL      0.060962
    109 N10        -1.7170    2.2990   -0.3430 n         1 MOL     -0.225785
    110 C35        -2.8000    2.4080   -1.3270 c3        1 MOL      0.282748
    111 C36        -4.0490    1.9750   -0.6190 c         1 MOL      0.247871
    112 O17        -4.0480    1.3000    0.4280 o         1 MOL     -0.245131
    113 C37        -2.5180    1.6980   -2.6350 c3        1 MOL     -0.710917
    114 C38        -3.0360    0.2380   -2.7850 c         1 MOL      0.823336
    115 N11        -2.1680   -0.6900   -2.5490 n         1 MOL     -0.875879
    116 O18        -4.1820   -0.0020   -2.9640 o         1 MOL     -0.567149
    117 H50        -1.1400    1.4640   -0.4180 hn        1 MOL      0.204914
    118 H51        -2.8960    3.4650   -1.5670 h1        1 MOL      0.051321
    119 H52        -1.4460    1.7320   -2.8220 hc        1 MOL      0.209633
    120 H53        -3.0520    2.2570   -3.4020 hc        1 MOL      0.209633
    121 H54        -1.2370   -0.4760   -2.2220 hn        1 MOL      0.420158
    122 H55        -2.5960   -1.6150   -2.5340 hn        1 MOL      0.420158
    123 N12        -5.2070    2.3310   -1.1850 n         1 MOL     -0.419026
    124 C39        -6.5150    1.9590   -0.5150 c3        1 MOL      0.017371
    125 C40        -6.7380    0.4310   -0.1460 c         1 MOL      0.676715
    126 O19        -7.1320    0.0770    0.9290 o         1 MOL     -0.552954
    127 C41        -7.7640    2.4850   -1.2870 c3        1 MOL     -0.098817
    128 C42        -9.1280    2.0730   -0.8280 ca        1 MOL     -0.060055
    129 C43        -9.6600    2.6230    0.3160 ca        1 MOL     -0.117460
    130 C44        -9.8170    0.9360   -1.4690 ca        1 MOL     -0.117460
    131 C45       -11.0150    2.2950    0.6940 ca        1 MOL     -0.278690
    132 C46       -11.0290    0.5340   -0.9730 ca        1 MOL     -0.278690
    133 C47       -11.6920    1.2460    0.0790 ca        1 MOL      0.409335
    134 O20       -12.9100    0.9580    0.4800 oh        1 MOL     -0.567849
    135 H56        -5.2460    2.8320   -2.0660 hn        1 MOL      0.288197
    136 H57        -6.5310    2.5440    0.4070 h1        1 MOL      0.079159
    137 H58        -7.5770    2.1070   -2.2940 hc        1 MOL      0.045534
    138 H59        -7.7370    3.5730   -1.2810 hc        1 MOL      0.045534
    139 H60        -9.0980    3.3730    0.8360 ha        1 MOL      0.134298
    140 H61        -9.2760    0.2910   -2.1540 ha        1 MOL      0.134298
    141 H62       -11.4390    2.8380    1.5210 ha        1 MOL      0.133202
    142 H63       -11.5420   -0.3150   -1.3950 ha        1 MOL      0.133202
    143 H64       -13.4360    0.3130    0.0110 ho        1 MOL      0.410926
    144 N13        -6.3270   -0.4480   -1.0080 n         1 MOL     -0.341157
    145 C48        -6.3500   -1.9400   -0.8450 c3        1 MOL     -0.106480
    146 C49        -5.5750   -2.3000    0.3650 c         1 MOL      0.358451
    147 O21        -5.9520   -3.2330    1.0740 o         1 MOL     -0.531585
    148 C50        -5.8350   -2.6670   -2.0190 c3        1 MOL      0.089631
    149 C51        -6.8720   -2.8090   -3.1210 c3        1 MOL     -0.149697
    150 C52        -6.2600   -3.5260   -4.3550 c         1 MOL      0.669923
    151 O22        -6.5840   -4.7450   -4.5280 o         1 MOL     -0.732680
    152 O23        -5.5190   -2.8880   -5.1680 o         1 MOL     -0.732680
    153 H65        -5.8730   -0.1460   -1.8520 hn        1 MOL      0.238667
    154 H66        -7.4090   -2.1870   -0.7820 h1        1 MOL      0.113424
    155 H67        -5.5070   -3.6870   -1.8200 hc        1 MOL      0.020389
    156 H68        -4.9080   -2.2170   -2.3560 hc        1 MOL      0.020389
    157 H69        -7.1990   -1.8690   -3.5460 hc        1 MOL     -0.004413
    158 H70        -7.7530   -3.3530   -2.7750 hc        1 MOL     -0.004413
    159 N14        -4.4660   -1.6370    0.6520 n         1 MOL     -0.091420
    160 C53        -3.6720   -1.8940    1.8280 c3        1 MOL     -0.094848
    161 C54        -4.2550   -1.3560    3.1200 c         1 MOL      0.439062
    162 O24        -4.0920   -1.9600    4.1980 o         1 MOL     -0.563940
    163 C55        -2.2710   -1.3830    1.5310 c3        1 MOL      0.044235
    164 C56        -1.4450   -2.0500    0.4240 c3        1 MOL      0.143580
    165 C57        -0.0850   -1.2760    0.1750 c         1 MOL      0.672340
    166 O25         0.9870   -1.9210    0.1610 o         1 MOL     -0.750866
    167 O26        -0.0540   -0.0720   -0.2540 o         1 MOL     -0.750866
    168 H71        -4.1810   -0.8490    0.0760 hn        1 MOL      0.063117
    169 H72        -3.6230   -2.9810    1.9070 h1        1 MOL      0.086363
    170 H73        -1.6670   -1.4690    2.4360 hc        1 MOL      0.019607
    171 H74        -2.3080   -0.3120    1.3710 hc        1 MOL      0.019607
    172 H75        -2.0120   -1.9910   -0.5020 hc        1 MOL     -0.057905
    173 H76        -1.2650   -3.1200    0.5710 hc        1 MOL     -0.057905
    174 N15        -4.9320   -0.2070    3.0120 n         1 MOL      0.101918
    175 C58        -5.7360    0.3520    4.1340 c3        1 MOL     -0.304853
    176 H77        -6.7560   -0.0260    4.0730 h1        1 MOL      0.094650
    177 H78        -5.2930    0.0520    5.0840 h1        1 MOL      0.094650
    178 H79        -5.7480    1.4400    4.0670 h1        1 MOL      0.094650
    179 H80        -5.1800    0.2690    2.1570 hn        1 MOL     -0.008570
    180 Ca1         2.3900   -0.0170   -1.1640 Ca        1 MOL      1.782096
    181 O27         1.4610    2.2680   -2.2680 oh        1 MOL     -0.878630
    182 H81         1.3920    2.6520   -3.1510 ho        1 MOL      0.411734
    183 H82         2.3040    2.5690   -1.9350 ho        1 MOL      0.411734
    184 O28         0.9840   -0.7820   -3.4820 oh        1 MOL     -0.878630
    185 H83         0.3010   -0.7840   -4.1490 ho        1 MOL      0.411734
    186 H84         1.5850   -1.4790   -3.7610 ho        1 MOL      0.411734
@<TRIPOS>BOND
     1    1    2 1   
     2    1    4 1   
     3    1    5 1   
     4    1    6 1   
     5    2    3 2   
     6    2    7 1   
     7    7    8 1   
     8    7   15 1   
     9    8    9 1   
    10    8   11 1   
    11    8   16 1   
    12    9   10 2   
    13    9   19 1   
    14   11   12 1   
    15   11   17 1   
    16   11   18 1   
    17   12   13 1   
    18   12   14 1   
    19   19   20 1   
    20   19   27 1   
    21   20   21 1   
    22   20   23 1   
    23   20   28 1   
    24   21   22 2   
    25   21   38 1   
    26   23   24 1   
    27   23   25 1   
    28   23   29 1   
    29   24   26 1   
    30   24   30 1   
    31   24   31 1   
    32   25   32 1   
    33   25   33 1   
    34   25   34 1   
    35   26   35 1   
    36   26   36 1   
    37   26   37 1   
    38   38   39 1   
    39   38   46 1   
    40   39   40 1   
    41   39   42 1   
    42   39   47 1   
    43   40   41 2   
    44   40   50 1   
    45   42   43 1   
    46   42   48 1   
    47   42   49 1   
    48   43   44 1   
    49   43   45 1   
    50   50   51 1   
    51   50   54 1   
    52   51   52 1   
    53   51   55 1   
    54   51   56 1   
    55   52   53 2   
    56   52   57 1   
    57   57   58 1   
    58   57   65 1   
    59   58   59 1   
    60   58   61 1   
    61   58   66 1   
    62   59   60 2   
    63   59   69 1   
    64   61   62 1   
    65   61   67 1   
    66   61   68 1   
    67   62   63 1   
    68   62   64 1   
    69   69   70 1   
    70   69   73 1   
    71   70   71 1   
    72   70   74 1   
    73   70   75 1   
    74   71   72 2   
    75   71   76 1   
    76   76   77 1   
    77   76   85 1   
    78   77   78 1   
    79   77   80 1   
    80   77   86 1   
    81   78   79 2   
    82   78   93 1   
    83   80   81 1   
    84   80   87 1   
    85   80   88 1   
    86   81   82 1   
    87   81   89 1   
    88   81   90 1   
    89   82   83 1   
    90   82   84 2   
    91   83   91 1   
    92   83   92 1   
    93   93   94 1   
    94   93  100 1   
    95   94   95 1   
    96   94   97 1   
    97   94  101 1   
    98   95   96 2   
    99   95  109 1   
   100   97   98 1   
   101   97   99 1   
   102   97  102 1   
   103   98  103 1   
   104   98  104 1   
   105   98  105 1   
   106   99  106 1   
   107   99  107 1   
   108   99  108 1   
   109  109  110 1   
   110  109  117 1   
   111  110  111 1   
   112  110  113 1   
   113  110  118 1   
   114  111  112 2   
   115  111  123 1   
   116  113  114 1   
   117  113  119 1   
   118  113  120 1   
   119  114  115 1   
   120  114  116 2   
   121  115  121 1   
   122  115  122 1   
   123  123  124 1   
   124  123  135 1   
   125  124  125 1   
   126  124  127 1   
   127  124  136 1   
   128  125  126 2   
   129  125  144 1   
   130  127  128 1   
   131  127  137 1   
   132  127  138 1   
   133  128  129 ar  
   134  128  130 ar  
   135  129  131 ar  
   136  129  139 1   
   137  130  132 ar  
   138  130  140 1   
   139  131  133 ar  
   140  131  141 1   
   141  132  133 ar  
   142  132  142 1   
   143  133  134 1   
   144  134  143 1   
   145  144  145 1   
   146  144  153 1   
   147  145  146 1   
   148  145  148 1   
   149  145  154 1   
   150  146  147 2   
   151  146  159 1   
   152  148  149 1   
   153  148  155 1   
   154  148  156 1   
   155  149  150 1   
   156  149  157 1   
   157  149  158 1   
   158  150  151 1   
   159  150  152 1   
   160  159  160 1   
   161  159  168 1   
   162  160  161 1   
   163  160  163 1   
   164  160  169 1   
   165  161  162 2   
   166  161  174 1   
   167  163  164 1   
   168  163  170 1   
   169  163  171 1   
   170  164  165 1   
   171  164  172 1   
   172  164  173 1   
   173  165  166 1   
   174  165  167 1   
   175  174  175 1   
   176  174  179 1   
   177  175  176 1   
   178  175  177 1   
   179  175  178 1   
   180  181  182 1   
   181  181  183 1   
   182  184  185 1   
   183  184  186 1   
@<TRIPOS>SUBSTRUCTURE
     1 MOL         1 TEMP              0 ****  ****    0 ROOT
