@<TRIPOS>MOLECULE
MOL
  183   181     1     0     0
SMALL
resp


@<TRIPOS>ATOM
      1 C1         -0.8710    1.9490    6.4370 c3        1 MOL     -0.323251
      2 C2         -1.2730    2.2370    4.9670 c         1 MOL      0.654983
      3 O1         -0.5850    3.0890    4.3730 o         1 MOL     -0.524396
      4 H1          0.1710    1.6320    6.4730 hc        1 MOL      0.071583
      5 H2         -0.9950    2.8540    7.0320 hc        1 MOL      0.071583
      6 H3         -1.5050    1.1580    6.8400 hc        1 MOL      0.071583
      7 N1         -2.2400    1.4490    4.4540 n         1 MOL     -0.536735
      8 C3         -2.7660    1.4820    3.0750 c3        1 MOL      0.108633
      9 C4         -3.2230    2.8870    2.7430 c         1 MOL      0.673760
     10 O2         -3.6980    3.6730    3.5930 o         1 MOL     -0.608188
     11 C5         -3.8450    0.3850    2.8920 c3        1 MOL     -0.420285
     12 C6         -4.4380    0.2310    1.4570 c         1 MOL      0.782234
     13 O3         -5.5420   -0.3810    1.3650 o         1 MOL     -0.670216
     14 O4         -3.8770    0.6520    0.3980 o         1 MOL     -0.670216
     15 H4         -2.7040    0.7920    5.0630 hn        1 MOL      0.310875
     16 H5         -1.8910    1.1930    2.5020 h1        1 MOL      0.081240
     17 H6         -4.6680    0.5570    3.5870 hc        1 MOL      0.092980
     18 H7         -3.4210   -0.5710    3.1910 hc        1 MOL      0.092980
     19 N2         -2.8870    3.2870    1.4890 n         1 MOL     -0.635745
     20 C7         -3.3070    4.6200    0.9490 c3        1 MOL     -0.095495
     21 C8         -4.2040    4.4730   -0.2540 c         1 MOL      0.481981
     22 O5         -4.8650    5.4310   -0.5990 o         1 MOL     -0.583649
     23 C9         -1.9970    5.4960    0.6780 c3        1 MOL      0.379536
     24 C10        -1.0690    5.5030    1.9530 c3        1 MOL      0.385060
     25 C11        -2.3330    6.9020    0.3020 c3        1 MOL     -0.318228
     26 C12         0.2770    5.9330    1.5720 c3        1 MOL     -0.163400
     27 H8         -2.5690    2.5730    0.8390 hn        1 MOL      0.368098
     28 H9         -3.9820    5.1860    1.5910 h1        1 MOL      0.115191
     29 H10        -1.4320    5.0710   -0.1450 hc        1 MOL     -0.022893
     30 H11        -0.9850    4.4860    2.3320 hc        1 MOL     -0.116788
     31 H12        -1.4890    6.1770    2.6900 hc        1 MOL     -0.116788
     32 H13        -1.4170    7.4500    0.0960 hc        1 MOL      0.040920
     33 H14        -2.8830    7.0160   -0.6350 hc        1 MOL      0.040920
     34 H15        -2.8900    7.3030    1.1520 hc        1 MOL      0.040920
     35 H16         0.8520    5.9260    2.5040 hc        1 MOL      0.003874
     36 H17         0.7000    5.2920    0.7970 hc        1 MOL      0.003874
     37 H18         0.2000    6.9490    1.1810 hc        1 MOL      0.003874
     38 N3         -4.4320    3.2750   -0.8850 n         1 MOL     -0.045058
     39 C13        -5.4430    3.0490   -1.9910 c3        1 MOL     -0.337444
     40 C14        -6.8190    2.4690   -1.5580 c         1 MOL      0.565922
     41 O6         -7.7610    2.5910   -2.2760 o         1 MOL     -0.544859
     42 C15        -4.8890    2.1450   -3.0720 c3        1 MOL      0.078416
     43 C16        -3.3990    2.3830   -3.3760 c         1 MOL      0.587680
     44 O7         -3.0070    3.3740   -3.9610 o         1 MOL     -0.646150
     45 O8         -2.7120    1.4860   -2.8660 o         1 MOL     -0.646150
     46 H19        -3.9840    2.4560   -0.4960 hn        1 MOL      0.066409
     47 H20        -5.6230    4.0380   -2.4160 h1        1 MOL      0.164150
     48 H21        -5.4340    2.3000   -4.0060 hc        1 MOL     -0.023182
     49 H22        -5.2020    1.1550   -2.7680 hc        1 MOL     -0.023182
     50 N4         -6.9820    1.9440   -0.3490 n         1 MOL     -0.287197
     51 C17        -8.2150    1.2500    0.0270 c3        1 MOL     -0.428314
     52 C18        -8.3140   -0.1340   -0.5550 c         1 MOL      0.587413
     53 O9         -9.4450   -0.6650   -0.5110 o         1 MOL     -0.594202
     54 H23        -6.2060    1.7350    0.2500 hn        1 MOL      0.233058
     55 H24        -9.0840    1.8250   -0.3050 h1        1 MOL      0.184438
     56 H25        -7.9670    1.0180    1.0610 h1        1 MOL      0.184438
     57 N5         -7.2410   -0.7490   -1.1360 n         1 MOL     -0.239860
     58 C19        -7.2540   -2.0680   -1.7280 c3        1 MOL     -0.077052
     59 C20        -7.0590   -3.2260   -0.7290 c         1 MOL      0.430443
     60 O10        -7.4670   -4.3240   -1.1120 o         1 MOL     -0.580456
     61 C21        -6.2240   -2.2080   -2.8070 c3        1 MOL     -0.098575
     62 C22        -4.8250   -1.8490   -2.3560 c         1 MOL      0.665192
     63 O11        -4.0700   -1.2490   -3.1700 o         1 MOL     -0.733257
     64 O12        -4.3980   -2.0850   -1.1920 o         1 MOL     -0.733257
     65 H26        -6.3490   -0.3010   -1.2440 hn        1 MOL      0.258193
     66 H27        -8.1640   -2.2690   -2.2780 h1        1 MOL      0.095983
     67 H28        -6.4150   -1.4820   -3.5920 hc        1 MOL      0.040920
     68 H29        -6.2070   -3.2120   -3.2320 hc        1 MOL      0.040920
     69 N6         -6.5930   -2.9770    0.4730 n         1 MOL     -0.105643
     70 C23        -6.4500   -3.9800    1.5270 c3        1 MOL     -0.119662
     71 C24        -5.1030   -4.6330    1.5040 c         1 MOL      0.616622
     72 O13        -5.0470   -5.7500    2.0120 o         1 MOL     -0.609562
     73 H30        -6.3180   -2.0170    0.6240 hn        1 MOL      0.159422
     74 H31        -7.2610   -4.7080    1.4710 h1        1 MOL      0.060150
     75 H32        -6.5380   -3.4090    2.4570 h1        1 MOL      0.060150
     76 N7         -4.0410   -3.9820    1.0560 n         1 MOL     -0.347412
     77 C25        -2.6720   -4.4090    1.0700 c3        1 MOL     -0.013255
     78 C26        -1.7410   -3.1980    1.3340 c         1 MOL      0.422821
     79 O14        -2.1030   -2.1020    0.9440 o         1 MOL     -0.556196
     80 C27        -2.3480   -5.3550   -0.1540 c3        1 MOL      0.051877
     81 C28        -2.7370   -5.0720   -1.6070 c3        1 MOL     -0.344174
     82 C29        -1.9130   -4.0120   -2.2580 c         1 MOL      0.702768
     83 N8         -1.5200   -4.2810   -3.4630 n         1 MOL     -0.738406
     84 O15        -1.5450   -3.0120   -1.6110 o         1 MOL     -0.632115
     85 H33        -4.2530   -3.0970    0.6070 hn        1 MOL      0.270502
     86 H34        -2.5950   -5.1580    1.8650 h1        1 MOL      0.048547
     87 H35        -2.8110   -6.2820    0.2050 hc        1 MOL      0.012116
     88 H36        -1.2880   -5.6100   -0.0540 hc        1 MOL      0.012116
     89 H37        -3.7630   -4.7270   -1.5520 hc        1 MOL      0.114264
     90 H38        -2.7070   -6.0030   -2.1810 hc        1 MOL      0.114264
     91 H39        -1.7520   -5.1870   -3.8420 hn        1 MOL      0.353013
     92 H40        -0.8390   -3.6750   -3.8940 hn        1 MOL      0.353013
     93 N9         -0.5990   -3.4310    1.9110 n         1 MOL     -0.203284
     94 C30         0.4950   -2.4670    2.0790 c3        1 MOL     -0.007130
     95 C31         1.7270   -2.9420    1.2660 c         1 MOL      0.366132
     96 O16         2.4120   -3.8240    1.6450 o         1 MOL     -0.559675
     97 C32         0.9930   -2.3120    3.5730 c3        1 MOL      0.354912
     98 C33         1.8550   -1.0530    3.7410 c3        1 MOL     -0.335746
     99 C34        -0.0410   -2.2440    4.6050 c3        1 MOL     -0.335746
    100 H41        -0.5270   -4.3500    2.3220 hn        1 MOL      0.207292
    101 H42         0.1890   -1.4980    1.7070 h1        1 MOL      0.113502
    102 H43         1.6880   -3.1190    3.7830 hc        1 MOL     -0.053024
    103 H44         2.3060   -0.9210    4.7200 hc        1 MOL      0.062418
    104 H45         2.6410   -0.9540    2.9860 hc        1 MOL      0.062418
    105 H46         1.2290   -0.1670    3.6170 hc        1 MOL      0.062418
    106 H47        -0.4400   -1.2300    4.6130 hc        1 MOL      0.062418
    107 H48        -0.8430   -2.9730    4.4450 hc        1 MOL      0.062418
    108 H49         0.5860   -2.4910    5.4640 hc        1 MOL      0.062418
    109 N10         1.9180   -2.3750    0.1180 n         1 MOL     -0.298451
    110 C35         3.0960   -2.7730   -0.8200 c3        1 MOL      0.057048
    111 C36         4.3150   -2.0340   -0.2680 c         1 MOL      0.350177
    112 O17         4.2770   -1.1930    0.6060 o         1 MOL     -0.129639
    113 C37         2.8070   -2.3770   -2.2920 c3        1 MOL     -0.501261
    114 C38         2.9640   -0.9030   -2.7050 c         1 MOL      0.558715
    115 N11         2.0540   -0.0350   -2.7140 n         1 MOL     -0.714276
    116 O18         4.0330   -0.5420   -3.1410 o         1 MOL     -0.514694
    117 H50         1.3540   -1.5820   -0.1190 hn        1 MOL      0.257631
    118 H51         3.3320   -3.8360   -0.8020 h1        1 MOL      0.102749
    119 H52         1.8270   -2.7290   -2.6280 hc        1 MOL      0.164140
    120 H53         3.5830   -2.8850   -2.8670 hc        1 MOL      0.164140
    121 H54         1.1110   -0.2460   -2.4310 hn        1 MOL      0.408472
    122 H55         2.2260    0.8400   -3.1760 hn        1 MOL      0.408472
    123 N12         5.5230   -2.2710   -0.8900 n         1 MOL     -0.591630
    124 C39         6.8350   -1.7230   -0.3940 c3        1 MOL      0.220281
    125 C40         6.9000   -0.1880   -0.2510 c         1 MOL      0.495436
    126 O19         7.5330    0.3160    0.6670 o         1 MOL     -0.497039
    127 C41         8.0700   -2.3150   -1.2080 c3        1 MOL     -0.116314
    128 C42         9.3500   -2.0900   -0.5420 ca        1 MOL     -0.091857
    129 C43         9.6900   -2.7740    0.6480 ca        1 MOL     -0.039707
    130 C44        10.2410   -1.0600   -0.9430 ca        1 MOL     -0.039707
    131 C45        10.9340   -2.5250    1.3530 ca        1 MOL     -0.402579
    132 C46        11.3680   -0.7060   -0.2460 ca        1 MOL     -0.402579
    133 C47        11.6790   -1.4530    0.9130 ca        1 MOL      0.477236
    134 O20        12.7430   -1.0670    1.6660 oh        1 MOL     -0.543094
    135 H56         5.5130   -3.1360   -1.4090 hn        1 MOL      0.308442
    136 H57         6.8450   -2.0510    0.6470 h1        1 MOL      0.010041
    137 H58         7.9640   -1.8170   -2.1730 hc        1 MOL      0.063300
    138 H59         7.9700   -3.4040   -1.2910 hc        1 MOL      0.063300
    139 H60         9.0280   -3.5140    1.0830 ha        1 MOL      0.113574
    140 H61         9.9200   -0.4980   -1.8100 ha        1 MOL      0.113574
    141 H62        11.1500   -3.0300    2.2870 ha        1 MOL      0.183992
    142 H63        11.9410    0.1590   -0.5500 ha        1 MOL      0.183992
    143 H64        13.1760   -0.3600    1.1790 ho        1 MOL      0.370243
    144 N13         6.3430    0.4830   -1.2270 n         1 MOL     -0.345979
    145 C48         6.1850    1.9660   -1.3130 c3        1 MOL     -0.006976
    146 C49         5.3650    2.4750   -0.1670 c         1 MOL      0.179326
    147 O21         5.6510    3.5830    0.2810 o         1 MOL     -0.467657
    148 C50         5.6090    2.5150   -2.6640 c3        1 MOL      0.169101
    149 C51         6.6990    2.3530   -3.7360 c3        1 MOL     -0.309051
    150 C52         6.1760    2.8950   -5.1290 c         1 MOL      0.733513
    151 O22         6.9720    3.5930   -5.7680 o         1 MOL     -0.739748
    152 O23         5.0220    2.7460   -5.5460 o         1 MOL     -0.739748
    153 H65         5.8090   -0.0530   -1.8910 hn        1 MOL      0.221450
    154 H66         7.1790    2.3920   -1.1770 h1        1 MOL      0.105421
    155 H67         5.4790    3.5760   -2.4470 hc        1 MOL      0.002457
    156 H68         4.7120    2.0060   -3.0110 hc        1 MOL      0.002457
    157 H69         6.8800    1.2940   -3.9220 hc        1 MOL      0.033181
    158 H70         7.6080    2.8700   -3.4430 hc        1 MOL      0.033181
    159 N14         4.3350    1.6760    0.2210 n         1 MOL     -0.099939
    160 C53         3.4590    2.0350    1.3530 c3        1 MOL     -0.027156
    161 C54         4.0970    1.6030    2.6520 c         1 MOL      0.438413
    162 O24         3.9010    2.3180    3.6470 o         1 MOL     -0.569769
    163 C55         2.0570    1.5100    1.2440 c3        1 MOL      0.180876
    164 C56         1.3030    1.9920    0.0230 c3        1 MOL     -0.029835
    165 C57         0.0470    1.0870   -0.1390 c         1 MOL      0.630311
    166 O25        -1.1030    1.6180   -0.2060 o         1 MOL     -0.746255
    167 O26         0.1420   -0.1570   -0.2230 o         1 MOL     -0.746255
    168 H71         4.1980    0.7460   -0.1370 hn        1 MOL      0.173834
    169 H72         3.3230    3.1130    1.4190 h1        1 MOL      0.070586
    170 H73         1.4810    1.7040    2.1400 hc        1 MOL      0.021212
    171 H74         2.2690    0.4470    1.2060 hc        1 MOL      0.021212
    172 H75         1.8970    1.8560   -0.8810 hc        1 MOL     -0.024586
    173 H76         1.1310    3.0590    0.1870 hc        1 MOL     -0.024586
    174 N15         4.8630    0.4770    2.7160 n         1 MOL     -0.046291
    175 C58         5.6220    0.0260    3.9090 c3        1 MOL     -0.211461
    176 H77         6.6910    0.0660    3.6960 h1        1 MOL      0.077275
    177 H78         5.3960    0.6780    4.7530 h1        1 MOL      0.077275
    178 H79         5.3390   -0.9980    4.1540 h1        1 MOL      0.077275
    179 H80         4.8340   -0.1290    1.8980 hn        1 MOL     -0.003137
    180 Ca1        -2.2990   -0.5630   -1.2360 Ca        1 MOL      1.713668
    181 O27        -0.6590   -0.4950   -3.2100 oh        1 MOL     -0.822354
    182 H81        -0.0450   -1.1190   -3.6010 ho        1 MOL      0.391941
    183 H82        -0.8890    0.0850   -3.9400 ho        1 MOL      0.391941
@<TRIPOS>BOND
     1    1    2 1   
     2    1    4 1   
     3    1    5 1   
     4    1    6 1   
     5    2    3 2   
     6    2    7 1   
     7    7    8 1   
     8    7   15 1   
     9    8    9 1   
    10    8   11 1   
    11    8   16 1   
    12    9   10 2   
    13    9   19 1   
    14   11   12 1   
    15   11   17 1   
    16   11   18 1   
    17   12   13 1   
    18   12   14 1   
    19   19   20 1   
    20   19   27 1   
    21   20   21 1   
    22   20   23 1   
    23   20   28 1   
    24   21   22 2   
    25   21   38 1   
    26   23   24 1   
    27   23   25 1   
    28   23   29 1   
    29   24   26 1   
    30   24   30 1   
    31   24   31 1   
    32   25   32 1   
    33   25   33 1   
    34   25   34 1   
    35   26   35 1   
    36   26   36 1   
    37   26   37 1   
    38   38   39 1   
    39   38   46 1   
    40   39   40 1   
    41   39   42 1   
    42   39   47 1   
    43   40   41 2   
    44   40   50 1   
    45   42   43 1   
    46   42   48 1   
    47   42   49 1   
    48   43   44 1   
    49   43   45 1   
    50   50   51 1   
    51   50   54 1   
    52   51   52 1   
    53   51   55 1   
    54   51   56 1   
    55   52   53 2   
    56   52   57 1   
    57   57   58 1   
    58   57   65 1   
    59   58   59 1   
    60   58   61 1   
    61   58   66 1   
    62   59   60 2   
    63   59   69 1   
    64   61   62 1   
    65   61   67 1   
    66   61   68 1   
    67   62   63 1   
    68   62   64 1   
    69   69   70 1   
    70   69   73 1   
    71   70   71 1   
    72   70   74 1   
    73   70   75 1   
    74   71   72 2   
    75   71   76 1   
    76   76   77 1   
    77   76   85 1   
    78   77   78 1   
    79   77   80 1   
    80   77   86 1   
    81   78   79 2   
    82   78   93 1   
    83   80   81 1   
    84   80   87 1   
    85   80   88 1   
    86   81   82 1   
    87   81   89 1   
    88   81   90 1   
    89   82   83 1   
    90   82   84 2   
    91   83   91 1   
    92   83   92 1   
    93   93   94 1   
    94   93  100 1   
    95   94   95 1   
    96   94   97 1   
    97   94  101 1   
    98   95   96 2   
    99   95  109 1   
   100   97   98 1   
   101   97   99 1   
   102   97  102 1   
   103   98  103 1   
   104   98  104 1   
   105   98  105 1   
   106   99  106 1   
   107   99  107 1   
   108   99  108 1   
   109  109  110 1   
   110  109  117 1   
   111  110  111 1   
   112  110  113 1   
   113  110  118 1   
   114  111  112 2   
   115  111  123 1   
   116  113  114 1   
   117  113  119 1   
   118  113  120 1   
   119  114  115 1   
   120  114  116 2   
   121  115  121 1   
   122  115  122 1   
   123  123  124 1   
   124  123  135 1   
   125  124  125 1   
   126  124  127 1   
   127  124  136 1   
   128  125  126 2   
   129  125  144 1   
   130  127  128 1   
   131  127  137 1   
   132  127  138 1   
   133  128  129 ar  
   134  128  130 ar  
   135  129  131 ar  
   136  129  139 1   
   137  130  132 ar  
   138  130  140 1   
   139  131  133 ar  
   140  131  141 1   
   141  132  133 ar  
   142  132  142 1   
   143  133  134 1   
   144  134  143 1   
   145  144  145 1   
   146  144  153 1   
   147  145  146 1   
   148  145  148 1   
   149  145  154 1   
   150  146  147 2   
   151  146  159 1   
   152  148  149 1   
   153  148  155 1   
   154  148  156 1   
   155  149  150 1   
   156  149  157 1   
   157  149  158 1   
   158  150  151 1   
   159  150  152 1   
   160  159  160 1   
   161  159  168 1   
   162  160  161 1   
   163  160  163 1   
   164  160  169 1   
   165  161  162 2   
   166  161  174 1   
   167  163  164 1   
   168  163  170 1   
   169  163  171 1   
   170  164  165 1   
   171  164  172 1   
   172  164  173 1   
   173  165  166 1   
   174  165  167 1   
   175  174  175 1   
   176  174  179 1   
   177  175  176 1   
   178  175  177 1   
   179  175  178 1   
   180  181  182 1   
   181  181  183 1   
@<TRIPOS>SUBSTRUCTURE
     1 MOL         1 TEMP              0 ****  ****    0 ROOT
