@<TRIPOS>MOLECULE
MOL
  179   176     1     0     0
SMALL
resp


@<TRIPOS>ATOM
      1 C1          2.4810    3.5960    3.9190 c3        1 MOL     -0.256171
      2 C2          1.4830    3.4140    2.7350 c         1 MOL      0.617172
      3 O1          1.9310    3.3040    1.5600 o         1 MOL     -0.556155
      4 H1          2.0460    4.2640    4.6620 hc        1 MOL      0.073017
      5 H2          2.6820    2.6270    4.3780 hc        1 MOL      0.073017
      6 H3          3.4130    4.0230    3.5480 hc        1 MOL      0.073017
      7 N1          0.1850    3.3070    2.9370 n         1 MOL     -0.638755
      8 C3         -0.9060    3.0580    1.9900 c3        1 MOL      0.327465
      9 C4         -1.4620    4.3270    1.3510 c         1 MOL      0.390858
     10 O2         -2.5820    4.7310    1.6090 o         1 MOL     -0.460935
     11 C5         -2.0000    2.2170    2.6660 c3        1 MOL     -0.051879
     12 C6         -2.8860    1.5150    1.6260 c         1 MOL      0.677088
     13 O3         -3.9580    1.1180    2.0170 o         1 MOL     -0.631760
     14 O4         -2.5110    1.5230    0.3620 o         1 MOL     -0.631760
     15 H4         -0.0560    3.1730    3.9040 hn        1 MOL      0.318800
     16 H5         -0.4550    2.4590    1.1900 h1        1 MOL     -0.059739
     17 H6         -2.5380    2.8850    3.3360 hc        1 MOL      0.001109
     18 H7         -1.4610    1.4650    3.2490 hc        1 MOL      0.001109
     19 N2         -0.6240    4.9930    0.5730 n         1 MOL     -0.349160
     20 C7         -0.8300    6.3610   -0.0250 c3        1 MOL     -0.017808
     21 C8         -1.8080    6.2770   -1.1160 c         1 MOL      0.513427
     22 O5         -2.2280    7.3850   -1.5320 o         1 MOL     -0.569436
     23 C9          0.5470    6.9780   -0.4520 c3        1 MOL     -0.295900
     24 C10         1.4300    7.3140    0.7710 c3        1 MOL      0.140855
     25 C11         2.8300    7.8250    0.3080 c3        1 MOL     -0.092075
     26 C12         3.7610    7.6910    1.5510 c3        1 MOL      0.009958
     27 N3          3.4060    8.5320    2.6910 n4        1 MOL     -0.364424
     28 H8          0.3580    4.7290    0.5360 hn        1 MOL      0.291239
     29 H9         -1.3390    7.0530    0.6470 h1        1 MOL      0.116478
     30 H10         0.3940    7.9230   -0.9710 hc        1 MOL      0.124879
     31 H11         1.0820    6.2230   -1.0360 hc        1 MOL      0.124879
     32 H12         1.6090    6.3630    1.2770 hc        1 MOL     -0.026478
     33 H13         0.9990    7.9260    1.5700 hc        1 MOL     -0.026478
     34 H14         2.8270    8.8650   -0.0060 hc        1 MOL      0.071693
     35 H15         3.2810    7.2560   -0.5000 hc        1 MOL      0.071693
     36 H16         4.7570    8.0120    1.2420 hx        1 MOL      0.100466
     37 H17         3.8580    6.6690    1.9230 hx        1 MOL      0.100466
     38 H18         2.5250    8.2200    3.0650 hn        1 MOL      0.324493
     39 H19         4.0680    8.4990    3.4520 hn        1 MOL      0.324493
     40 H20         3.3900    9.5220    2.4840 hn        1 MOL      0.324493
     41 N4         -2.2920    5.0840   -1.4980 n         1 MOL     -0.242237
     42 C13        -3.4820    4.8400   -2.3840 c3        1 MOL      0.075865
     43 C14        -4.7290    4.2730   -1.7120 c         1 MOL      0.387248
     44 O6         -5.8550    4.3860   -2.2260 o         1 MOL     -0.537832
     45 C15        -3.0260    3.9210   -3.5180 c3        1 MOL     -0.207442
     46 C16        -2.6050    2.5620   -2.9800 c         1 MOL      0.759686
     47 O7         -1.4370    2.4220   -2.5720 o         1 MOL     -0.751461
     48 O8         -3.4180    1.6070   -2.9730 o         1 MOL     -0.751461
     49 H21        -1.8640    4.2700   -1.0900 hn        1 MOL      0.136089
     50 H22        -3.8020    5.7990   -2.8010 h1        1 MOL      0.087630
     51 H23        -2.2290    4.4360   -4.0600 hc        1 MOL      0.060054
     52 H24        -3.8380    3.7810   -4.2340 hc        1 MOL      0.060054
     53 N5         -4.5950    3.7560   -0.5330 n         1 MOL      0.037666
     54 C17        -5.7190    3.3030    0.3250 c3        1 MOL     -0.217001
     55 C18        -6.4210    1.9780   -0.1290 c         1 MOL      0.517696
     56 O9         -7.6050    1.8540    0.0590 o         1 MOL     -0.562082
     57 H25        -3.6670    3.6110   -0.1700 hn        1 MOL     -0.096454
     58 H26        -6.5020    4.0690    0.3070 h1        1 MOL      0.122664
     59 H27        -5.3360    3.2700    1.3470 h1        1 MOL      0.122664
     60 N6         -5.7130    1.0010   -0.7180 n         1 MOL     -0.096775
     61 C19        -6.3770   -0.2890   -1.0260 c3        1 MOL     -0.088020
     62 C20        -6.3930   -1.2700    0.1860 c         1 MOL      0.230678
     63 O10        -6.8580   -2.4250    0.0300 o         1 MOL     -0.421535
     64 C21        -5.8070   -0.8880   -2.3710 c3        1 MOL     -0.304729
     65 C22        -4.3440   -1.3500   -2.2130 c         1 MOL      0.588458
     66 N7         -3.7460   -1.8570   -3.2280 n         1 MOL     -0.676266
     67 O11        -3.7280   -1.1340   -1.1630 o         1 MOL     -0.437858
     68 H28        -4.7660    1.2810   -0.9420 hn        1 MOL      0.092700
     69 H29        -7.4000   -0.0760   -1.3520 h1        1 MOL      0.155060
     70 H30        -5.9530   -0.1660   -3.1680 hc        1 MOL      0.123120
     71 H31        -6.4390   -1.7600   -2.5260 hc        1 MOL      0.123120
     72 H32        -4.3100   -1.9090   -4.0580 hn        1 MOL      0.336960
     73 H33        -2.8560   -2.3240   -3.2560 hn        1 MOL      0.336960
     74 N8         -5.8290   -0.8920    1.2780 n         1 MOL     -0.027010
     75 C23        -5.7650   -1.7720    2.4770 c3        1 MOL     -0.414919
     76 C24        -4.7980   -2.9700    2.3430 c         1 MOL      0.474082
     77 O12        -4.8290   -3.9800    3.0540 o         1 MOL     -0.511583
     78 H34        -5.2640   -0.0570    1.2750 hn        1 MOL      0.201433
     79 H35        -6.7150   -2.2620    2.6770 h1        1 MOL      0.171484
     80 H36        -5.4040   -1.1580    3.3060 h1        1 MOL      0.171484
     81 N9         -3.9010   -2.8140    1.3060 n         1 MOL     -0.009675
     82 C25        -2.7210   -3.5780    1.0930 c3        1 MOL      0.140121
     83 C26        -1.4360   -2.7050    1.0460 c         1 MOL      0.288314
     84 O13        -1.4730   -1.6410    0.4760 o         1 MOL     -0.638314
     85 C27        -2.9390   -4.4800   -0.1330 c3        1 MOL      0.096965
     86 C28        -4.0870   -5.4880    0.0670 ca        1 MOL     -0.048208
     87 C29        -5.2400   -5.2390   -0.5810 ca        1 MOL     -0.130378
     88 C30        -3.9780   -6.6600    0.8760 ca        1 MOL     -0.130378
     89 C31        -6.3530   -6.0140   -0.3320 ca        1 MOL     -0.290647
     90 C32        -5.0880   -7.4900    1.0450 ca        1 MOL     -0.290647
     91 C33        -6.3510   -7.1620    0.5270 ca        1 MOL      0.399455
     92 O14        -7.4990   -7.8920    0.8000 oh        1 MOL     -0.476346
     93 H37        -3.9730   -1.9960    0.7170 hn        1 MOL      0.101576
     94 H38        -2.5960   -4.3120    1.8920 h1        1 MOL     -0.018885
     95 H39        -2.0330   -5.0860   -0.1700 hc        1 MOL     -0.029750
     96 H40        -3.0800   -3.9010   -1.0510 hc        1 MOL     -0.029750
     97 H41        -5.2470   -4.4070   -1.2620 ha        1 MOL      0.127569
     98 H42        -3.0280   -6.9100    1.3210 ha        1 MOL      0.127569
     99 H43        -7.2690   -5.8160   -0.8560 ha        1 MOL      0.136660
    100 H44        -5.0730   -8.3770    1.6590 ha        1 MOL      0.136660
    101 H45        -7.1820   -8.6730    1.2680 ho        1 MOL      0.337775
    102 N10        -0.2500   -3.2180    1.4730 n         1 MOL     -0.340054
    103 C34         1.0910   -2.5490    1.4130 c3        1 MOL     -0.155678
    104 C35         2.2070   -3.5120    1.0490 c         1 MOL      0.399486
    105 O15         2.4420   -4.4940    1.8170 o         1 MOL     -0.513337
    106 C36         1.3890   -1.5540    2.6040 c3        1 MOL      0.060160
    107 C37         1.4970   -2.2260    3.9480 c3        1 MOL     -0.006040
    108 C38         0.3930   -0.3590    2.5880 c3        1 MOL     -0.509691
    109 C39         2.9390   -2.4500    4.2760 c3        1 MOL      0.076065
    110 H46        -0.2190   -4.1310    1.9080 hn        1 MOL      0.322931
    111 H47         0.9460   -1.8740    0.5680 h1        1 MOL      0.191645
    112 H48         2.3550   -1.1820    2.2460 hc        1 MOL      0.025550
    113 H49         0.9310   -3.1620    3.9500 hc        1 MOL      0.016875
    114 H50         1.1380   -1.5750    4.7460 hc        1 MOL      0.016875
    115 H51         0.4910   -0.0460    1.5560 hc        1 MOL      0.166107
    116 H52        -0.5980   -0.6890    2.8870 hc        1 MOL      0.166107
    117 H53         0.7320    0.3580    3.3350 hc        1 MOL      0.166107
    118 H54         3.4720   -2.9470    3.4620 hc        1 MOL     -0.033047
    119 H55         3.3850   -1.4490    4.2910 hc        1 MOL     -0.033047
    120 H56         3.1030   -2.9190    5.2460 hc        1 MOL     -0.033047
    121 N11         2.9140   -3.2270   -0.0000 n         1 MOL     -0.210926
    122 C40         3.8690   -4.1030   -0.5850 c3        1 MOL     -0.064045
    123 C41         5.2660   -3.7220   -0.1750 c         1 MOL      0.402538
    124 O16         5.5680   -2.7990    0.5920 o         1 MOL     -0.304020
    125 C42         3.6840   -3.9550   -2.0790 c3        1 MOL     -0.020973
    126 O17         4.0440   -2.6490   -2.5430 oh        1 MOL     -0.603866
    127 H57         2.7890   -2.2890   -0.3600 hn        1 MOL      0.324617
    128 H58         3.7060   -5.1580   -0.3420 h1        1 MOL      0.087554
    129 H59         2.6200   -3.9760   -2.2960 h1        1 MOL      0.084631
    130 H60         4.2110   -4.7780   -2.5670 h1        1 MOL      0.084631
    131 H61         3.4540   -1.9740   -2.2220 ho        1 MOL      0.381478
    132 N12         6.2550   -4.4890   -0.6810 n         1 MOL     -0.409267
    133 C43         7.6590   -4.2340   -0.4860 c3        1 MOL      0.090717
    134 C44         8.0750   -2.7930   -0.9040 c         1 MOL      0.499796
    135 O18         8.7820   -2.1010   -0.1860 o         1 MOL     -0.535302
    136 C45         8.5220   -5.1580   -1.4190 c3        1 MOL     -0.191965
    137 H62         6.0010   -5.3220   -1.1960 hn        1 MOL      0.296925
    138 H63         7.9090   -4.3750    0.5730 h1        1 MOL      0.077625
    139 H64         9.5750   -5.2720   -1.1670 hc        1 MOL      0.061635
    140 H65         8.0160   -6.1300   -1.3670 hc        1 MOL      0.061635
    141 H66         8.4020   -4.9300   -2.4750 hc        1 MOL      0.061635
    142 N13         7.5480   -2.3070   -2.0250 n         1 MOL     -0.377906
    143 C46         7.9440   -0.9830   -2.5600 c3        1 MOL      0.031413
    144 C47         7.3030    0.1740   -1.6810 c         1 MOL      0.326383
    145 O19         7.6050    1.3530   -1.8690 o         1 MOL     -0.528860
    146 C48         7.4620   -0.8240   -3.9790 c3        1 MOL     -0.231735
    147 H67         7.0640   -2.9070   -2.6730 hn        1 MOL      0.289202
    148 H68         9.0330   -0.9500   -2.4710 h1        1 MOL      0.109844
    149 H69         7.8170   -1.5830   -4.6820 hc        1 MOL      0.072914
    150 H70         6.3800   -0.8630   -3.9690 hc        1 MOL      0.072914
    151 H71         7.7630    0.1820   -4.2940 hc        1 MOL      0.072914
    152 N14         6.3760   -0.1480   -0.7800 n         1 MOL      0.290168
    153 C49         5.5890    0.7780   -0.0230 c3        1 MOL     -0.246426
    154 C50         6.2400    0.9250    1.3530 c         1 MOL      0.462298
    155 O20         6.4740    1.9880    1.8650 o         1 MOL     -0.536669
    156 C51         4.1420    0.3740   -0.0360 c3        1 MOL      0.272086
    157 C52         3.5190    0.5520   -1.3970 c3        1 MOL     -0.199249
    158 C53         2.0670    0.0210   -1.4790 c         1 MOL      0.684230
    159 O21         1.1000    0.7260   -1.2180 o         1 MOL     -0.693243
    160 O22         1.9030   -1.1780   -1.7990 o         1 MOL     -0.693243
    161 H72         6.2350   -1.1330   -0.6400 hn        1 MOL     -0.103719
    162 H73         5.6740    1.7850   -0.4480 h1        1 MOL      0.104270
    163 H74         3.5450    1.0050    0.6300 hc        1 MOL     -0.043228
    164 H75         4.0680   -0.6660    0.2830 hc        1 MOL     -0.043228
    165 H76         4.1540    0.0830   -2.1490 hc        1 MOL      0.033587
    166 H77         3.5350    1.6330   -1.5400 hc        1 MOL      0.033587
    167 N15         6.5890   -0.2420    1.9180 n         1 MOL     -0.184332
    168 C54         7.6040   -0.3360    3.0130 c3        1 MOL     -0.370674
    169 H78         8.1180   -1.2950    2.9500 h1        1 MOL      0.144026
    170 H79         8.3270    0.4720    2.9090 h1        1 MOL      0.144026
    171 H80         7.1050   -0.2550    3.9790 h1        1 MOL      0.144026
    172 H81         6.3550   -1.0960    1.4400 hn        1 MOL      0.136502
    173 Ca1        -1.4570    0.1450   -1.4840 Ca        1 MOL      1.723487
    174 O23        -0.6470   -2.2860   -2.0350 oh        1 MOL     -0.865823
    175 H82        -0.6650   -2.7560   -2.8740 ho        1 MOL      0.421534
    176 H83         0.2870   -2.1240   -1.8820 ho        1 MOL      0.421534
    177 O24        -0.0950    0.1380   -3.7820 oh        1 MOL     -0.865823
    178 H84        -0.3590    0.3480   -4.6780 ho        1 MOL      0.421534
    179 H85         0.7700    0.5570   -3.6790 ho        1 MOL      0.421534
@<TRIPOS>BOND
     1    1    2 1   
     2    1    4 1   
     3    1    5 1   
     4    1    6 1   
     5    2    3 2   
     6    2    7 1   
     7    7    8 1   
     8    7   15 1   
     9    8    9 1   
    10    8   11 1   
    11    8   16 1   
    12    9   10 2   
    13    9   19 1   
    14   11   12 1   
    15   11   17 1   
    16   11   18 1   
    17   12   13 1   
    18   12   14 1   
    19   19   20 1   
    20   19   28 1   
    21   20   21 1   
    22   20   23 1   
    23   20   29 1   
    24   21   22 2   
    25   21   41 1   
    26   23   24 1   
    27   23   30 1   
    28   23   31 1   
    29   24   25 1   
    30   24   32 1   
    31   24   33 1   
    32   25   26 1   
    33   25   34 1   
    34   25   35 1   
    35   26   27 1   
    36   26   36 1   
    37   26   37 1   
    38   27   38 1   
    39   27   39 1   
    40   27   40 1   
    41   41   42 1   
    42   41   49 1   
    43   42   43 1   
    44   42   45 1   
    45   42   50 1   
    46   43   44 2   
    47   43   53 1   
    48   45   46 1   
    49   45   51 1   
    50   45   52 1   
    51   46   47 1   
    52   46   48 1   
    53   53   54 1   
    54   53   57 1   
    55   54   55 1   
    56   54   58 1   
    57   54   59 1   
    58   55   56 2   
    59   55   60 1   
    60   60   61 1   
    61   60   68 1   
    62   61   62 1   
    63   61   64 1   
    64   61   69 1   
    65   62   63 2   
    66   62   74 1   
    67   64   65 1   
    68   64   70 1   
    69   64   71 1   
    70   65   66 1   
    71   65   67 2   
    72   66   72 1   
    73   66   73 1   
    74   74   75 1   
    75   74   78 1   
    76   75   76 1   
    77   75   79 1   
    78   75   80 1   
    79   76   77 2   
    80   76   81 1   
    81   81   82 1   
    82   81   93 1   
    83   82   83 1   
    84   82   85 1   
    85   82   94 1   
    86   83   84 2   
    87   83  102 1   
    88   85   86 1   
    89   85   95 1   
    90   85   96 1   
    91   86   87 ar  
    92   86   88 ar  
    93   87   89 ar  
    94   87   97 1   
    95   88   90 ar  
    96   88   98 1   
    97   89   91 ar  
    98   89   99 1   
    99   90   91 ar  
   100   90  100 1   
   101   91   92 1   
   102   92  101 1   
   103  102  103 1   
   104  102  110 1   
   105  103  104 1   
   106  103  106 1   
   107  103  111 1   
   108  104  105 2   
   109  104  121 1   
   110  106  107 1   
   111  106  108 1   
   112  106  112 1   
   113  107  109 1   
   114  107  113 1   
   115  107  114 1   
   116  108  115 1   
   117  108  116 1   
   118  108  117 1   
   119  109  118 1   
   120  109  119 1   
   121  109  120 1   
   122  121  122 1   
   123  121  127 1   
   124  122  123 1   
   125  122  125 1   
   126  122  128 1   
   127  123  124 2   
   128  123  132 1   
   129  125  126 1   
   130  125  129 1   
   131  125  130 1   
   132  126  131 1   
   133  132  133 1   
   134  132  137 1   
   135  133  134 1   
   136  133  136 1   
   137  133  138 1   
   138  134  135 2   
   139  134  142 1   
   140  136  139 1   
   141  136  140 1   
   142  136  141 1   
   143  142  143 1   
   144  142  147 1   
   145  143  144 1   
   146  143  146 1   
   147  143  148 1   
   148  144  145 2   
   149  144  152 1   
   150  146  149 1   
   151  146  150 1   
   152  146  151 1   
   153  152  153 1   
   154  152  161 1   
   155  153  154 1   
   156  153  156 1   
   157  153  162 1   
   158  154  155 2   
   159  154  167 1   
   160  156  157 1   
   161  156  163 1   
   162  156  164 1   
   163  157  158 1   
   164  157  165 1   
   165  157  166 1   
   166  158  159 1   
   167  158  160 1   
   168  167  168 1   
   169  167  172 1   
   170  168  169 1   
   171  168  170 1   
   172  168  171 1   
   173  174  175 1   
   174  174  176 1   
   175  177  178 1   
   176  177  179 1   
@<TRIPOS>SUBSTRUCTURE
     1 MOL         1 TEMP              0 ****  ****    0 ROOT
