@<TRIPOS>MOLECULE
MOL
  189   185     1     0     0
SMALL
resp


@<TRIPOS>ATOM
      1 C1         -0.5690    2.4730    6.3990 c3        1 MOL     -0.366174
      2 C2         -0.7740    2.3630    4.8710 c         1 MOL      0.736472
      3 O1          0.1620    2.6970    4.0900 o         1 MOL     -0.654809
      4 H1          0.1750    3.2400    6.6110 hc        1 MOL      0.095305
      5 H2         -1.5130    2.7420    6.8740 hc        1 MOL      0.095305
      6 H3         -0.2250    1.5150    6.7900 hc        1 MOL      0.095305
      7 N1         -1.9040    1.8620    4.3720 n         1 MOL     -0.587151
      8 C3         -2.2950    1.7200    3.0030 c3        1 MOL      0.143316
      9 C4         -2.5240    3.1560    2.3780 c         1 MOL      0.485971
     10 O2         -3.3430    3.9070    2.9180 o         1 MOL     -0.542172
     11 C5         -3.5880    0.9340    2.9250 c3        1 MOL     -0.027886
     12 C6         -4.0730    0.6710    1.5120 c         1 MOL      0.634123
     13 O3         -3.3410    1.1570    0.5950 o         1 MOL     -0.637787
     14 O4         -5.1100    0.0500    1.2930 o         1 MOL     -0.637787
     15 H4         -2.5690    1.5930    5.0690 hn        1 MOL      0.310408
     16 H5         -1.5290    1.1110    2.5380 h1        1 MOL     -0.006128
     17 H6         -4.3680    1.3860    3.5260 hc        1 MOL      0.003786
     18 H7         -3.3360    0.0010    3.4250 hc        1 MOL      0.003786
     19 N2         -1.6610    3.5700    1.4690 n         1 MOL     -0.205522
     20 C7         -1.5390    4.9800    0.9460 c3        1 MOL      0.041558
     21 C8         -2.7330    5.2670    0.0250 c         1 MOL      0.462391
     22 O5         -3.4160    6.2530    0.1900 o         1 MOL     -0.521803
     23 C9         -0.2070    5.0830    0.2190 c3        1 MOL     -0.105355
     24 C10         1.0100    4.9600    1.0760 c3        1 MOL      0.050737
     25 C11         2.2900    5.1440    0.2300 c3        1 MOL     -0.032165
     26 C12         3.5200    5.1570    1.0280 c3        1 MOL     -0.199459
     27 N3          4.6510    5.2400    0.0740 n4        1 MOL     -0.287753
     28 H8         -1.0720    2.8230    1.1190 hn        1 MOL      0.111932
     29 H9         -1.6780    5.7870    1.6700 h1        1 MOL      0.069951
     30 H10        -0.2310    6.0820   -0.2280 hc        1 MOL      0.017473
     31 H11        -0.2340    4.3550   -0.5970 hc        1 MOL      0.017473
     32 H12         0.9560    4.1440    1.7950 hc        1 MOL      0.035741
     33 H13         0.9110    5.8590    1.6940 hc        1 MOL      0.035741
     34 H14         2.2630    5.9300   -0.5230 hc        1 MOL      0.053448
     35 H15         2.3360    4.2310   -0.3600 hc        1 MOL      0.053448
     36 H16         3.5860    4.2760    1.6540 hx        1 MOL      0.154664
     37 H17         3.6090    6.0550    1.6490 hx        1 MOL      0.154664
     38 H18         4.9700    4.3770   -0.3360 hn        1 MOL      0.286488
     39 H19         4.5270    5.9920   -0.5860 hn        1 MOL      0.286488
     40 H20         5.4640    5.5590    0.5750 hn        1 MOL      0.286488
     41 N4         -3.0520    4.2500   -0.8520 n         1 MOL     -0.366652
     42 C13        -4.1320    4.4240   -1.8250 c3        1 MOL      0.091299
     43 C14        -5.4890    3.8680   -1.3420 c         1 MOL      0.397851
     44 O6         -6.4660    4.3110   -1.8730 o         1 MOL     -0.532949
     45 C15        -3.7780    3.8780   -3.2410 c3        1 MOL     -0.374145
     46 C16        -3.0290    2.5480   -3.2430 c         1 MOL      0.808353
     47 O7         -2.9420    1.7890   -2.2320 o         1 MOL     -0.709517
     48 O8         -2.4960    2.1790   -4.3100 o         1 MOL     -0.709517
     49 H21        -2.6260    3.3420   -0.7920 hn        1 MOL      0.209521
     50 H22        -4.2540    5.4870   -2.0180 h1        1 MOL      0.095689
     51 H23        -3.1140    4.6120   -3.7040 hc        1 MOL      0.105662
     52 H24        -4.6950    3.8660   -3.8340 hc        1 MOL      0.105662
     53 N5         -5.5910    2.9530   -0.3670 n         1 MOL     -0.077277
     54 C17        -6.8470    2.4210    0.1800 c3        1 MOL     -0.232834
     55 C18        -7.3890    1.3350   -0.7000 c         1 MOL      0.604647
     56 O9         -8.5920    1.2680   -0.9030 o         1 MOL     -0.590204
     57 H25        -4.6870    2.6970    0.0090 hn        1 MOL      0.154701
     58 H26        -7.5740    3.2420    0.1780 h1        1 MOL      0.114945
     59 H27        -6.7560    2.1310    1.2330 h1        1 MOL      0.114945
     60 N6         -6.5820    0.4460   -1.2670 n         1 MOL     -0.153184
     61 C19        -7.0630   -0.7200   -2.0830 c3        1 MOL     -0.121656
     62 C20        -7.1200   -1.9740   -1.1980 c         1 MOL      0.417001
     63 O10        -7.4630   -3.0240   -1.8070 o         1 MOL     -0.530099
     64 C21        -6.0730   -0.9070   -3.2060 c3        1 MOL     -0.174197
     65 C22        -4.6360   -1.2180   -2.8170 c         1 MOL      0.778035
     66 O11        -3.9370   -1.5400   -3.8040 o         1 MOL     -0.669541
     67 O12        -4.2130   -1.1840   -1.6400 o         1 MOL     -0.669541
     68 H28        -5.6230    0.5540   -0.9580 hn        1 MOL      0.035715
     69 H29        -8.0530   -0.4870   -2.4860 h1        1 MOL      0.149445
     70 H30        -6.1050   -0.0100   -3.8130 hc        1 MOL      0.076294
     71 H31        -6.3880   -1.7510   -3.8130 hc        1 MOL      0.076294
     72 N7         -6.8970   -1.9020    0.0970 n         1 MOL     -0.179293
     73 C23        -6.9520   -2.9590    1.0380 c3        1 MOL     -0.153754
     74 C24        -5.7000   -3.8340    1.1800 c         1 MOL      0.599918
     75 O13        -5.7440   -4.9140    1.7360 o         1 MOL     -0.566673
     76 H32        -6.5790   -1.0100    0.4560 hn        1 MOL      0.222238
     77 H33        -7.8310   -3.5700    0.8410 h1        1 MOL      0.088007
     78 H34        -7.0490   -2.4980    2.0150 h1        1 MOL      0.088007
     79 N8         -4.5100   -3.3550    0.6440 n         1 MOL     -0.383288
     80 C25        -3.3480   -4.1740    0.6250 c3        1 MOL      0.043552
     81 C26        -2.0390   -3.3110    0.7290 c         1 MOL      0.611087
     82 O14        -2.1100   -2.1130    0.6030 o         1 MOL     -0.698971
     83 C27        -3.3280   -5.0590   -0.6380 c3        1 MOL      0.346071
     84 C28        -4.2740   -6.2520   -0.6180 c3        1 MOL     -0.389552
     85 O15        -3.5200   -4.4870   -1.8750 oh        1 MOL     -0.581331
     86 H35        -4.5030   -2.4920    0.1050 hn        1 MOL      0.284195
     87 H36        -3.2990   -4.8700    1.4690 h1        1 MOL      0.060730
     88 H37        -2.3120   -5.4560   -0.6720 h1        1 MOL     -0.049888
     89 H38        -3.7570   -5.1870   -2.4820 ho        1 MOL      0.405013
     90 H39        -4.1690   -6.7000    0.3680 hc        1 MOL      0.102599
     91 H40        -5.3070   -6.0190   -0.8690 hc        1 MOL      0.102599
     92 H41        -3.8310   -7.0200   -1.2650 hc        1 MOL      0.102599
     93 N9         -0.8800   -3.9520    1.0150 n         1 MOL     -0.444458
     94 C29         0.4230   -3.3770    1.3820 c3        1 MOL      0.244342
     95 C30         1.4860   -4.0070    0.4560 c         1 MOL      0.358586
     96 O16         1.7850   -5.1710    0.5920 o         1 MOL     -0.504724
     97 C31         0.6950   -3.7490    2.8920 c3        1 MOL      0.028053
     98 C32        -0.5170   -3.3820    3.7550 c3        1 MOL     -0.035671
     99 C33         1.9570   -3.1030    3.3900 c3        1 MOL     -0.114188
    100 C34        -0.8110   -1.8440    3.8650 c3        1 MOL     -0.159870
    101 H42        -0.9310   -4.9390    1.1740 hn        1 MOL      0.252016
    102 H43         0.4410   -2.2840    1.3430 h1        1 MOL     -0.036265
    103 H44         0.8200   -4.8330    2.9000 hc        1 MOL      0.009779
    104 H45        -0.3700   -3.8040    4.7540 hc        1 MOL      0.022992
    105 H46        -1.3980   -3.8770    3.3600 hc        1 MOL      0.022992
    106 H47         2.1340   -3.4960    4.3950 hc        1 MOL      0.018595
    107 H48         2.8180   -3.3340    2.7630 hc        1 MOL      0.018595
    108 H49         1.9090   -2.0120    3.2860 hc        1 MOL      0.018595
    109 H50        -1.3010   -1.5660    2.9370 hc        1 MOL      0.051709
    110 H51        -1.5630   -1.6530    4.6340 hc        1 MOL      0.051709
    111 H52        -0.0260   -1.0920    3.9680 hc        1 MOL      0.051709
    112 N10         1.9960   -3.1450   -0.4160 n         1 MOL     -0.232564
    113 C35         3.1730   -3.2410   -1.2830 c3        1 MOL     -0.035729
    114 C36         4.4560   -3.0360   -0.5300 c         1 MOL      0.326462
    115 O17         4.3490   -2.5980    0.5950 o         1 MOL     -0.213814
    116 C37         3.1370   -2.2320   -2.4370 c3        1 MOL      0.226938
    117 C38         2.2130   -2.7750   -3.5310 c3        1 MOL     -0.218810
    118 O18         2.7460   -0.8710   -2.1730 oh        1 MOL     -0.627373
    119 H53         1.4820   -2.2780   -0.5030 hn        1 MOL      0.188566
    120 H54         3.2170   -4.1920   -1.8100 h1        1 MOL      0.084087
    121 H55         4.0620   -2.2060   -3.0140 h1        1 MOL      0.052583
    122 H56         1.8750   -0.8390   -1.7670 ho        1 MOL      0.415668
    123 H57         2.0340   -1.9790   -4.2600 hc        1 MOL      0.057893
    124 H58         2.4730   -3.6910   -4.0570 hc        1 MOL      0.057893
    125 H59         1.2090   -2.9680   -3.1840 hc        1 MOL      0.057893
    126 N11         5.6080   -3.2650   -1.1110 n         1 MOL     -0.332951
    127 C39         6.8550   -2.9470   -0.4670 c3        1 MOL     -0.060560
    128 C40         7.0820   -1.4870    0.0390 c         1 MOL      0.309765
    129 O19         7.5080   -1.2820    1.1930 o         1 MOL     -0.488882
    130 C41         8.0630   -3.3030   -1.4160 c3        1 MOL      0.157522
    131 C42         8.0410   -4.7950   -1.9380 c3        1 MOL     -0.327464
    132 O20         7.9120   -2.5400   -2.6130 oh        1 MOL     -0.632183
    133 H60         5.6300   -3.4580   -2.1130 hn        1 MOL      0.268359
    134 H61         6.8620   -3.4870    0.4900 h1        1 MOL      0.138391
    135 H62         9.0160   -3.1220   -0.9130 h1        1 MOL      0.096685
    136 H63         8.5120   -2.9570   -3.2300 ho        1 MOL      0.428436
    137 H64         9.0100   -5.0030   -2.3930 hc        1 MOL      0.102663
    138 H65         7.9510   -5.4600   -1.0690 hc        1 MOL      0.102663
    139 H66         7.2450   -4.9590   -2.6610 hc        1 MOL      0.102663
    140 N12         6.8000   -0.4840   -0.7770 n         1 MOL     -0.071764
    141 C43         6.8500    0.9910   -0.4730 c3        1 MOL     -0.249329
    142 C44         5.9480    1.4510    0.6400 c         1 MOL      0.539478
    143 O21         6.1850    2.4710    1.3060 o         1 MOL     -0.583173
    144 C45         6.7240    1.7910   -1.8090 c3        1 MOL     -0.162851
    145 C46         8.0280    1.7230   -2.6440 c3        1 MOL     -0.077165
    146 C47         8.0710    2.7130   -3.8250 c3        1 MOL     -0.123690
    147 C48         8.2570    4.2260   -3.5080 c3        1 MOL      0.051221
    148 N13         9.5080    4.3690   -2.8040 n4        1 MOL     -0.186450
    149 H67         6.4240   -0.8440   -1.6430 hn        1 MOL      0.225934
    150 H68         7.8570    1.1990   -0.1270 h1        1 MOL      0.152044
    151 H69         6.5730    2.8270   -1.4940 hc        1 MOL      0.065557
    152 H70         5.8260    1.4780   -2.3500 hc        1 MOL      0.065557
    153 H71         8.1350    0.7110   -3.0360 hc        1 MOL      0.056489
    154 H72         8.9160    1.7390   -2.0130 hc        1 MOL      0.056489
    155 H73         7.1850    2.6430   -4.4500 hc        1 MOL      0.102937
    156 H74         8.8520    2.4370   -4.5280 hc        1 MOL      0.102937
    157 H75         7.4780    4.6100   -2.8590 hx        1 MOL      0.056864
    158 H76         8.2330    4.8540   -4.3930 hx        1 MOL      0.056864
    159 H77         9.8040    5.3300   -2.8880 hn        1 MOL      0.223776
    160 H78         9.4250    4.2090   -1.8060 hn        1 MOL      0.223776
    161 H79        10.2600    3.7450   -3.0570 hn        1 MOL      0.223776
    162 N14         5.0080    0.5670    1.0270 n         1 MOL     -0.069871
    163 C49         4.0550    0.7480    2.1470 c3        1 MOL     -0.193651
    164 C50         4.4890   -0.0480    3.4030 c         1 MOL      0.551310
    165 O22         4.5930    0.4220    4.5000 o         1 MOL     -0.535273
    166 C51         2.7110    0.2800    1.5710 c3        1 MOL     -0.061971
    167 C52         2.1780    1.1200    0.3960 c3        1 MOL      0.022613
    168 C53         0.8420    0.5670   -0.0380 c         1 MOL      0.550259
    169 O23         0.6910   -0.5720   -0.5460 o         1 MOL     -0.566154
    170 O24        -0.1980    1.2370    0.1420 o         1 MOL     -0.566154
    171 H80         4.8750   -0.2410    0.4300 hn        1 MOL      0.069829
    172 H81         3.8720    1.8060    2.3810 h1        1 MOL      0.127008
    173 H82         1.9440    0.1850    2.3450 hc        1 MOL      0.110229
    174 H83         2.9000   -0.7460    1.2680 hc        1 MOL      0.110229
    175 H84         2.8390    1.0870   -0.4660 hc        1 MOL     -0.024249
    176 H85         2.0290    2.1770    0.6340 hc        1 MOL     -0.024249
    177 N15         4.9930   -1.2720    3.1510 n         1 MOL     -0.115255
    178 C54         5.5970   -2.2100    4.1460 c3        1 MOL     -0.399450
    179 H86         6.2850   -1.6620    4.7890 h1        1 MOL      0.150339
    180 H87         4.8070   -2.6530    4.7530 h1        1 MOL      0.150339
    181 H88         6.1380   -2.9980    3.6230 h1        1 MOL      0.150339
    182 H89         4.7600   -1.6930    2.2590 hn        1 MOL      0.049116
    183 Ca1        -1.8900   -0.2780   -1.0810 Ca        1 MOL      1.689949
    184 O25        -0.8070    0.3430   -3.4680 oh        1 MOL     -0.929929
    185 H90        -1.2400    1.0720   -3.9120 ho        1 MOL      0.421721
    186 H91        -0.7130   -0.3280   -4.1520 ho        1 MOL      0.421721
    187 O26        -1.5670   -2.5170   -2.3990 oh        1 MOL     -0.929929
    188 H92        -1.7130   -2.2940   -3.3180 ho        1 MOL      0.421721
    189 H93        -2.2440   -3.1640   -2.1990 ho        1 MOL      0.421721
@<TRIPOS>BOND
     1    1    2 1   
     2    1    4 1   
     3    1    5 1   
     4    1    6 1   
     5    2    3 2   
     6    2    7 1   
     7    7    8 1   
     8    7   15 1   
     9    8    9 1   
    10    8   11 1   
    11    8   16 1   
    12    9   10 2   
    13    9   19 1   
    14   11   12 1   
    15   11   17 1   
    16   11   18 1   
    17   12   13 1   
    18   12   14 1   
    19   19   20 1   
    20   19   28 1   
    21   20   21 1   
    22   20   23 1   
    23   20   29 1   
    24   21   22 2   
    25   21   41 1   
    26   23   24 1   
    27   23   30 1   
    28   23   31 1   
    29   24   25 1   
    30   24   32 1   
    31   24   33 1   
    32   25   26 1   
    33   25   34 1   
    34   25   35 1   
    35   26   27 1   
    36   26   36 1   
    37   26   37 1   
    38   27   38 1   
    39   27   39 1   
    40   27   40 1   
    41   41   42 1   
    42   41   49 1   
    43   42   43 1   
    44   42   45 1   
    45   42   50 1   
    46   43   44 2   
    47   43   53 1   
    48   45   46 1   
    49   45   51 1   
    50   45   52 1   
    51   46   47 1   
    52   46   48 1   
    53   53   54 1   
    54   53   57 1   
    55   54   55 1   
    56   54   58 1   
    57   54   59 1   
    58   55   56 2   
    59   55   60 1   
    60   60   61 1   
    61   60   68 1   
    62   61   62 1   
    63   61   64 1   
    64   61   69 1   
    65   62   63 2   
    66   62   72 1   
    67   64   65 1   
    68   64   70 1   
    69   64   71 1   
    70   65   66 1   
    71   65   67 1   
    72   72   73 1   
    73   72   76 1   
    74   73   74 1   
    75   73   77 1   
    76   73   78 1   
    77   74   75 2   
    78   74   79 1   
    79   79   80 1   
    80   79   86 1   
    81   80   81 1   
    82   80   83 1   
    83   80   87 1   
    84   81   82 2   
    85   81   93 1   
    86   83   84 1   
    87   83   85 1   
    88   83   88 1   
    89   84   90 1   
    90   84   91 1   
    91   84   92 1   
    92   85   89 1   
    93   93   94 1   
    94   93  101 1   
    95   94   95 1   
    96   94   97 1   
    97   94  102 1   
    98   95   96 2   
    99   95  112 1   
   100   97   98 1   
   101   97   99 1   
   102   97  103 1   
   103   98  100 1   
   104   98  104 1   
   105   98  105 1   
   106   99  106 1   
   107   99  107 1   
   108   99  108 1   
   109  100  109 1   
   110  100  110 1   
   111  100  111 1   
   112  112  113 1   
   113  112  119 1   
   114  113  114 1   
   115  113  116 1   
   116  113  120 1   
   117  114  115 2   
   118  114  126 1   
   119  116  117 1   
   120  116  118 1   
   121  116  121 1   
   122  117  123 1   
   123  117  124 1   
   124  117  125 1   
   125  118  122 1   
   126  126  127 1   
   127  126  133 1   
   128  127  128 1   
   129  127  130 1   
   130  127  134 1   
   131  128  129 2   
   132  128  140 1   
   133  130  131 1   
   134  130  132 1   
   135  130  135 1   
   136  131  137 1   
   137  131  138 1   
   138  131  139 1   
   139  132  136 1   
   140  140  141 1   
   141  140  149 1   
   142  141  142 1   
   143  141  144 1   
   144  141  150 1   
   145  142  143 2   
   146  142  162 1   
   147  144  145 1   
   148  144  151 1   
   149  144  152 1   
   150  145  146 1   
   151  145  153 1   
   152  145  154 1   
   153  146  147 1   
   154  146  155 1   
   155  146  156 1   
   156  147  148 1   
   157  147  157 1   
   158  147  158 1   
   159  148  159 1   
   160  148  160 1   
   161  148  161 1   
   162  162  163 1   
   163  162  171 1   
   164  163  164 1   
   165  163  166 1   
   166  163  172 1   
   167  164  165 2   
   168  164  177 1   
   169  166  167 1   
   170  166  173 1   
   171  166  174 1   
   172  167  168 1   
   173  167  175 1   
   174  167  176 1   
   175  168  169 1   
   176  168  170 1   
   177  177  178 1   
   178  177  182 1   
   179  178  179 1   
   180  178  180 1   
   181  178  181 1   
   182  184  185 1   
   183  184  186 1   
   184  187  188 1   
   185  187  189 1   
@<TRIPOS>SUBSTRUCTURE
     1 MOL         1 TEMP              0 ****  ****    0 ROOT
