@<TRIPOS>MOLECULE
MOL
  189   185     1     0     0
SMALL
resp


@<TRIPOS>ATOM
      1 C1          0.4470    1.5200    6.0380 c3        1 MOL     -0.340990
      2 C2          0.1100    1.4810    4.5080 c         1 MOL      0.666171
      3 O1          0.7640    2.0070    3.6420 o         1 MOL     -0.568982
      4 H1         -0.2280    0.8550    6.5760 hc        1 MOL      0.092295
      5 H2          1.4760    1.1950    6.1920 hc        1 MOL      0.092295
      6 H3          0.3280    2.5380    6.4100 hc        1 MOL      0.092295
      7 N1         -1.1600    1.1100    4.1660 n         1 MOL     -0.537406
      8 C3         -1.7830    1.1870    2.8490 c3        1 MOL      0.132825
      9 C4         -2.0900    2.7190    2.4680 c         1 MOL      0.535081
     10 O2         -2.8930    3.3240    3.1390 o         1 MOL     -0.562034
     11 C5         -3.0700    0.3690    2.8210 c3        1 MOL     -0.201038
     12 C6         -3.8420    0.3580    1.4900 c         1 MOL      0.872887
     13 O3         -5.0430    0.1120    1.4050 o         1 MOL     -0.714165
     14 O4         -3.2460    0.6800    0.4660 o         1 MOL     -0.714165
     15 H4         -1.7260    0.7760    4.9280 hn        1 MOL      0.315353
     16 H5         -1.1140    0.7050    2.1340 h1        1 MOL     -0.030413
     17 H6         -3.7710    0.6260    3.6120 hc        1 MOL      0.032535
     18 H7         -2.8010   -0.6670    2.9890 hc        1 MOL      0.032535
     19 N2         -1.3290    3.3030    1.5680 n         1 MOL     -0.202689
     20 C7         -1.1070    4.7520    1.1960 c3        1 MOL      0.030854
     21 C8         -2.1840    5.3170    0.3050 c         1 MOL      0.505266
     22 O5         -2.4830    6.5010    0.4090 o         1 MOL     -0.559606
     23 C9          0.2200    4.8310    0.4500 c3        1 MOL     -0.081570
     24 C10         1.4610    4.3730    1.2890 c3        1 MOL      0.022781
     25 C11         1.5680    5.1660    2.6120 c3        1 MOL     -0.452474
     26 C12         2.7260    4.7160    3.4350 c3        1 MOL      0.252498
     27 N3          2.6270    5.3360    4.7420 n4        1 MOL     -0.344072
     28 H8         -0.6570    2.7430    1.0490 hn        1 MOL      0.199854
     29 H9         -1.1490    5.3230    2.1160 h1        1 MOL      0.032044
     30 H10         0.3670    5.8630    0.1460 hc        1 MOL      0.034585
     31 H11         0.2640    4.1690   -0.4210 hc        1 MOL      0.034585
     32 H12         2.3210    4.4580    0.6370 hc        1 MOL      0.076214
     33 H13         1.4060    3.3150    1.5300 hc        1 MOL      0.076214
     34 H14         0.7010    5.0020    3.2460 hc        1 MOL      0.129942
     35 H15         1.7610    6.2050    2.3580 hc        1 MOL      0.129942
     36 H16         3.6820    4.9750    2.9780 hx        1 MOL      0.054003
     37 H17         2.5450    3.6470    3.6140 hx        1 MOL      0.054003
     38 H18         2.3580    6.3050    4.6740 hn        1 MOL      0.304701
     39 H19         1.9050    4.9310    5.3200 hn        1 MOL      0.304701
     40 H20         3.4520    5.2690    5.3360 hn        1 MOL      0.304701
     41 N4         -2.7330    4.4270   -0.5710 n         1 MOL     -0.395225
     42 C13        -3.6570    4.6880   -1.6190 c3        1 MOL      0.152325
     43 C14        -5.0640    4.1260   -1.3010 c         1 MOL      0.382020
     44 O6         -5.9680    4.6040   -1.9620 o         1 MOL     -0.519004
     45 C15        -3.1200    4.2410   -2.9950 c3        1 MOL      0.012181
     46 C16        -2.7140    2.7410   -3.1640 c         1 MOL      0.755980
     47 O7         -2.2050    2.4610   -4.2620 o         1 MOL     -0.706238
     48 O8         -2.8050    1.9230   -2.2010 o         1 MOL     -0.706238
     49 H21        -2.3810    3.4800   -0.4860 hn        1 MOL      0.192193
     50 H22        -3.7510    5.7510   -1.8310 h1        1 MOL      0.041155
     51 H23        -2.1710    4.7760   -3.0980 hc        1 MOL     -0.024491
     52 H24        -3.7760    4.6020   -3.7800 hc        1 MOL     -0.024491
     53 N5         -5.1860    3.2290   -0.3390 n         1 MOL     -0.127640
     54 C17        -6.4460    2.6290    0.0140 c3        1 MOL     -0.057474
     55 C18        -7.0190    1.6220   -0.9780 c         1 MOL      0.559919
     56 O9         -7.8100    1.9630   -1.8590 o         1 MOL     -0.544275
     57 H25        -4.3830    2.9220    0.1840 hn        1 MOL      0.140470
     58 H26        -7.2140    3.3980    0.0320 h1        1 MOL      0.040569
     59 H27        -6.4670    2.3140    1.0700 h1        1 MOL      0.040569
     60 N6         -6.5810    0.3920   -0.9520 n         1 MOL     -0.391284
     61 C19        -7.0250   -0.7330   -1.7620 c3        1 MOL      0.143584
     62 C20        -7.1830   -2.0490   -0.9960 c         1 MOL      0.494008
     63 O10        -7.1780   -3.0700   -1.6150 o         1 MOL     -0.484775
     64 C21        -6.1420   -0.8980   -2.9770 c3        1 MOL     -0.388342
     65 C22        -4.6380   -1.1700   -2.6270 c         1 MOL      0.796299
     66 O11        -4.2550   -1.5420   -1.5140 o         1 MOL     -0.699974
     67 O12        -3.7830   -0.7930   -3.4400 o         1 MOL     -0.699974
     68 H28        -5.8580    0.1480   -0.2910 hn        1 MOL      0.148209
     69 H29        -8.0310   -0.4030   -2.0300 h1        1 MOL      0.044957
     70 H30        -6.1300    0.0280   -3.5610 hc        1 MOL      0.120481
     71 H31        -6.4390   -1.7990   -3.5120 hc        1 MOL      0.120481
     72 N7         -7.2040   -2.0220    0.3750 n         1 MOL     -0.496341
     73 C23        -7.2560   -3.2480    1.2000 c3        1 MOL      0.015407
     74 C24        -6.0240   -4.0820    1.1670 c         1 MOL      0.451722
     75 O13        -6.1210   -5.2250    1.5540 o         1 MOL     -0.549957
     76 H32        -7.0070   -1.1360    0.8160 hn        1 MOL      0.310777
     77 H33        -8.0760   -3.9080    0.9450 h1        1 MOL      0.081483
     78 H34        -7.4430   -2.9240    2.2240 h1        1 MOL      0.081483
     79 N8         -4.8230   -3.5870    0.8060 n         1 MOL     -0.171863
     80 C25        -3.5170   -4.2840    0.6810 c3        1 MOL     -0.162609
     81 C26        -2.2340   -3.4210    0.7980 c         1 MOL      0.564845
     82 O14        -2.2930   -2.1890    0.7960 o         1 MOL     -0.609450
     83 C27        -3.3070   -5.0300   -0.6850 c3        1 MOL      0.419718
     84 C28        -4.1830   -6.2650   -0.8920 c3        1 MOL     -0.465607
     85 O15        -3.5990   -4.1280   -1.7980 oh        1 MOL     -0.554944
     86 H35        -4.8160   -2.6330    0.4860 hn        1 MOL      0.188492
     87 H36        -3.6150   -5.1310    1.3610 h1        1 MOL      0.100885
     88 H37        -2.2790   -5.3730   -0.7650 h1        1 MOL      0.020413
     89 H38        -4.2070   -3.5140   -1.3770 ho        1 MOL      0.344931
     90 H39        -5.2450   -6.0300   -0.9810 hc        1 MOL      0.119309
     91 H40        -3.8870   -6.8010   -1.7900 hc        1 MOL      0.119309
     92 H41        -3.9650   -6.8870   -0.0280 hc        1 MOL      0.119309
     93 N9         -1.0560   -3.9970    1.0130 n         1 MOL     -0.655756
     94 C29         0.2080   -3.3230    1.4080 c3        1 MOL      0.015303
     95 C30         1.4270   -3.8310    0.5570 c         1 MOL      0.621847
     96 O16         1.7110   -4.9990    0.6660 o         1 MOL     -0.582009
     97 C31         0.4510   -3.3110    2.8480 c3        1 MOL      0.159699
     98 C32        -0.6700   -2.6990    3.6920 c3        1 MOL      0.144529
     99 C33         1.7750   -2.6120    3.1730 c3        1 MOL     -0.298636
    100 C34        -0.6620   -3.0840    5.1250 c3        1 MOL     -0.384981
    101 H42        -0.9960   -5.0090    0.9980 hn        1 MOL      0.321155
    102 H43         0.2720   -2.2490    1.1820 h1        1 MOL      0.198905
    103 H44         0.5550   -4.3440    3.1850 hc        1 MOL      0.001016
    104 H45        -1.6880   -2.8660    3.3470 hc        1 MOL      0.033247
    105 H46        -0.5650   -1.6150    3.5990 hc        1 MOL      0.033247
    106 H47         2.6530   -3.1010    2.7520 hc        1 MOL      0.039226
    107 H48         1.8330   -1.5820    2.8270 hc        1 MOL      0.039226
    108 H49         1.9590   -2.6320    4.2360 hc        1 MOL      0.039226
    109 H50        -1.3330   -2.3940    5.6390 hc        1 MOL      0.083837
    110 H51        -0.8300   -4.1550    5.1780 hc        1 MOL      0.083837
    111 H52         0.3740   -2.9220    5.4430 hc        1 MOL      0.083837
    112 N10         2.0540   -2.9870   -0.2860 n         1 MOL     -0.212999
    113 C35         3.1860   -3.2820   -1.1210 c3        1 MOL     -0.035464
    114 C36         4.5010   -3.0660   -0.3480 c         1 MOL      0.328797
    115 O17         4.5940   -2.3130    0.6270 o         1 MOL     -0.322271
    116 C37         3.3100   -2.4610   -2.3930 c3        1 MOL      0.082804
    117 C38         2.1850   -2.7790   -3.3060 c3        1 MOL     -0.534735
    118 O18         3.4380   -1.0740   -2.1930 oh        1 MOL     -0.376882
    119 H53         1.5780   -2.0990   -0.4170 hn        1 MOL      0.143284
    120 H54         3.2080   -4.3200   -1.4470 h1        1 MOL      0.089403
    121 H55         4.1810   -2.8670   -2.9280 h1        1 MOL      0.058946
    122 H56         3.5000   -0.6870   -3.0740 ho        1 MOL      0.369367
    123 H57         2.3470   -2.3330   -4.2830 hc        1 MOL      0.164973
    124 H58         1.9380   -3.8470   -3.3150 hc        1 MOL      0.164973
    125 H59         1.2650   -2.3530   -2.8980 hc        1 MOL      0.164973
    126 N11         5.6760   -3.6430   -0.8210 n         1 MOL     -0.266294
    127 C39         6.9820   -3.1900   -0.3630 c3        1 MOL     -0.265523
    128 C40         7.3650   -1.7220   -0.3680 c         1 MOL      0.458552
    129 O19         8.2610   -1.2910    0.3920 o         1 MOL     -0.499525
    130 C41         8.0460   -3.9540   -1.1070 c3        1 MOL      0.270373
    131 C42         8.0660   -5.4660   -0.8290 c3        1 MOL     -0.308537
    132 O20         7.9090   -3.8620   -2.5590 oh        1 MOL     -0.655321
    133 H60         5.5850   -4.3070   -1.5870 hn        1 MOL      0.284769
    134 H61         7.0510   -3.5520    0.6610 h1        1 MOL      0.180879
    135 H62         9.0190   -3.5860   -0.7940 h1        1 MOL      0.065091
    136 H63         8.6940   -4.2160   -2.9840 ho        1 MOL      0.426747
    137 H64         8.2850   -5.6690    0.2160 hc        1 MOL      0.088783
    138 H65         7.0760   -5.8860   -1.0100 hc        1 MOL      0.088783
    139 H66         8.8230   -5.8820   -1.4970 hc        1 MOL      0.088783
    140 N12         6.8320   -0.9230   -1.3090 n         1 MOL     -0.310079
    141 C43         6.9450    0.5960   -1.2990 c3        1 MOL      0.108571
    142 C44         6.1390    1.2480   -0.1990 c         1 MOL      0.210784
    143 O21         6.6480    2.0950    0.5410 o         1 MOL     -0.486366
    144 C45         6.6550    1.1360   -2.7630 c3        1 MOL     -0.196209
    145 C46         6.4780    2.6030   -2.7040 c3        1 MOL      0.316126
    146 C47         6.4410    3.4040   -4.0560 c3        1 MOL     -0.074710
    147 C48         6.3300    4.8520   -3.8820 c3        1 MOL      0.217099
    148 N13         6.1400    5.6030   -5.0720 n4        1 MOL     -0.369371
    149 H67         6.3330   -1.3740   -2.0560 hn        1 MOL      0.231332
    150 H68         7.9560    0.8890   -1.0080 h1        1 MOL      0.101827
    151 H69         5.6790    0.7220   -3.0300 hc        1 MOL      0.032292
    152 H70         7.4300    0.8200   -3.4500 hc        1 MOL      0.032292
    153 H71         7.1630    3.0430   -1.9880 hc        1 MOL     -0.060660
    154 H72         5.4680    2.7930   -2.3420 hc        1 MOL     -0.060660
    155 H73         5.5590    3.0810   -4.6070 hc        1 MOL      0.014882
    156 H74         7.3950    3.1100   -4.4920 hc        1 MOL      0.014882
    157 H75         7.2170    5.1890   -3.3410 hx        1 MOL      0.024983
    158 H76         5.4980    5.0990   -3.2140 hx        1 MOL      0.024983
    159 H77         5.2040    5.4610   -5.4360 hn        1 MOL      0.306895
    160 H78         6.0700    6.5550   -4.7530 hn        1 MOL      0.306895
    161 H79         6.8320    5.5410   -5.8050 hn        1 MOL      0.306895
    162 N14         4.9540    0.8130    0.0100 n         1 MOL      0.046808
    163 C49         4.0780    1.1890    1.1070 c3        1 MOL     -0.092030
    164 C50         4.5610    0.8480    2.5170 c         1 MOL      0.381532
    165 O22         4.5970    1.7510    3.3660 o         1 MOL     -0.561824
    166 C51         2.6960    0.5800    0.9550 c3        1 MOL     -0.176041
    167 C52         2.0630    1.1810   -0.2950 c3        1 MOL      0.067403
    168 C53         0.6420    0.6330   -0.4820 c         1 MOL      0.609689
    169 O23         0.3580   -0.6030   -0.5430 o         1 MOL     -0.681361
    170 O24        -0.2190    1.4990   -0.6680 o         1 MOL     -0.681361
    171 H80         4.5680    0.1330   -0.6230 hn        1 MOL      0.125535
    172 H81         3.8560    2.2550    1.0120 h1        1 MOL      0.022105
    173 H82         2.0460    0.8670    1.7900 hc        1 MOL      0.071595
    174 H83         2.7880   -0.5120    0.9990 hc        1 MOL      0.071595
    175 H84         2.6210    0.8730   -1.1780 hc        1 MOL     -0.051353
    176 H85         1.9640    2.2720   -0.2420 hc        1 MOL     -0.051353
    177 N15         5.2790   -0.3050    2.6430 n         1 MOL      0.045980
    178 C54         6.0300   -0.6260    3.8610 c3        1 MOL     -0.350482
    179 H86         5.9190   -1.6870    4.0880 h1        1 MOL      0.125473
    180 H87         7.0850   -0.3960    3.7090 h1        1 MOL      0.125473
    181 H88         5.6460   -0.0360    4.6930 h1        1 MOL      0.125473
    182 H89         5.2630   -0.8760    1.8170 hn        1 MOL      0.092393
    183 Ca1        -2.0720   -0.2940   -1.4430 Ca        1 MOL      1.744208
    184 O25        -1.4800   -2.6990   -2.4730 oh        1 MOL     -0.851709
    185 H90        -1.2250   -2.9460   -3.3520 ho        1 MOL      0.384238
    186 H91        -2.2270   -3.2720   -2.2680 ho        1 MOL      0.384238
    187 O26        -0.8370    0.3440   -3.6790 oh        1 MOL     -0.851709
    188 H92        -1.3010    1.1080   -4.0190 ho        1 MOL      0.384238
    189 H93         0.0060    0.3630   -4.1280 ho        1 MOL      0.384238
@<TRIPOS>BOND
     1    1    2 1   
     2    1    4 1   
     3    1    5 1   
     4    1    6 1   
     5    2    3 2   
     6    2    7 1   
     7    7    8 1   
     8    7   15 1   
     9    8    9 1   
    10    8   11 1   
    11    8   16 1   
    12    9   10 2   
    13    9   19 1   
    14   11   12 1   
    15   11   17 1   
    16   11   18 1   
    17   12   13 1   
    18   12   14 1   
    19   19   20 1   
    20   19   28 1   
    21   20   21 1   
    22   20   23 1   
    23   20   29 1   
    24   21   22 2   
    25   21   41 1   
    26   23   24 1   
    27   23   30 1   
    28   23   31 1   
    29   24   25 1   
    30   24   32 1   
    31   24   33 1   
    32   25   26 1   
    33   25   34 1   
    34   25   35 1   
    35   26   27 1   
    36   26   36 1   
    37   26   37 1   
    38   27   38 1   
    39   27   39 1   
    40   27   40 1   
    41   41   42 1   
    42   41   49 1   
    43   42   43 1   
    44   42   45 1   
    45   42   50 1   
    46   43   44 2   
    47   43   53 1   
    48   45   46 1   
    49   45   51 1   
    50   45   52 1   
    51   46   47 1   
    52   46   48 1   
    53   53   54 1   
    54   53   57 1   
    55   54   55 1   
    56   54   58 1   
    57   54   59 1   
    58   55   56 2   
    59   55   60 1   
    60   60   61 1   
    61   60   68 1   
    62   61   62 1   
    63   61   64 1   
    64   61   69 1   
    65   62   63 2   
    66   62   72 1   
    67   64   65 1   
    68   64   70 1   
    69   64   71 1   
    70   65   66 1   
    71   65   67 1   
    72   72   73 1   
    73   72   76 1   
    74   73   74 1   
    75   73   77 1   
    76   73   78 1   
    77   74   75 2   
    78   74   79 1   
    79   79   80 1   
    80   79   86 1   
    81   80   81 1   
    82   80   83 1   
    83   80   87 1   
    84   81   82 2   
    85   81   93 1   
    86   83   84 1   
    87   83   85 1   
    88   83   88 1   
    89   84   90 1   
    90   84   91 1   
    91   84   92 1   
    92   85   89 1   
    93   93   94 1   
    94   93  101 1   
    95   94   95 1   
    96   94   97 1   
    97   94  102 1   
    98   95   96 2   
    99   95  112 1   
   100   97   98 1   
   101   97   99 1   
   102   97  103 1   
   103   98  100 1   
   104   98  104 1   
   105   98  105 1   
   106   99  106 1   
   107   99  107 1   
   108   99  108 1   
   109  100  109 1   
   110  100  110 1   
   111  100  111 1   
   112  112  113 1   
   113  112  119 1   
   114  113  114 1   
   115  113  116 1   
   116  113  120 1   
   117  114  115 2   
   118  114  126 1   
   119  116  117 1   
   120  116  118 1   
   121  116  121 1   
   122  117  123 1   
   123  117  124 1   
   124  117  125 1   
   125  118  122 1   
   126  126  127 1   
   127  126  133 1   
   128  127  128 1   
   129  127  130 1   
   130  127  134 1   
   131  128  129 2   
   132  128  140 1   
   133  130  131 1   
   134  130  132 1   
   135  130  135 1   
   136  131  137 1   
   137  131  138 1   
   138  131  139 1   
   139  132  136 1   
   140  140  141 1   
   141  140  149 1   
   142  141  142 1   
   143  141  144 1   
   144  141  150 1   
   145  142  143 2   
   146  142  162 1   
   147  144  145 1   
   148  144  151 1   
   149  144  152 1   
   150  145  146 1   
   151  145  153 1   
   152  145  154 1   
   153  146  147 1   
   154  146  155 1   
   155  146  156 1   
   156  147  148 1   
   157  147  157 1   
   158  147  158 1   
   159  148  159 1   
   160  148  160 1   
   161  148  161 1   
   162  162  163 1   
   163  162  171 1   
   164  163  164 1   
   165  163  166 1   
   166  163  172 1   
   167  164  165 2   
   168  164  177 1   
   169  166  167 1   
   170  166  173 1   
   171  166  174 1   
   172  167  168 1   
   173  167  175 1   
   174  167  176 1   
   175  168  169 1   
   176  168  170 1   
   177  177  178 1   
   178  177  182 1   
   179  178  179 1   
   180  178  180 1   
   181  178  181 1   
   182  184  185 1   
   183  184  186 1   
   184  187  188 1   
   185  187  189 1   
@<TRIPOS>SUBSTRUCTURE
     1 MOL         1 TEMP              0 ****  ****    0 ROOT
