@<TRIPOS>MOLECULE
MOL
  189   185     1     0     0
SMALL
resp


@<TRIPOS>ATOM
      1 C1         -0.1260    3.5050   -4.1860 c3        1 MOL     -0.101367
      2 C2          0.5460    2.9140   -2.9090 c         1 MOL      0.526029
      3 O1          0.0770    3.2270   -1.7970 o         1 MOL     -0.583865
      4 H1         -1.2100    3.4880   -4.0670 hc        1 MOL      0.019798
      5 H2          0.2080    4.5330   -4.3300 hc        1 MOL      0.019798
      6 H3          0.1520    2.9070   -5.0530 hc        1 MOL      0.019798
      7 N1          1.6870    2.2670   -3.0340 n         1 MOL     -0.473946
      8 C3          2.4880    1.8070   -1.8770 c3        1 MOL      0.029878
      9 C4          3.2840    3.0240   -1.4940 c         1 MOL      0.581482
     10 O2          4.5240    3.0360   -1.5330 o         1 MOL     -0.482158
     11 C5          3.3670    0.5650   -2.2690 c3        1 MOL     -0.350096
     12 C6          4.0490   -0.0600   -1.0120 c         1 MOL      0.590394
     13 O3          5.0710   -0.7300   -1.0750 o         1 MOL     -0.590907
     14 O4          3.4780    0.1130    0.0840 o         1 MOL     -0.590907
     15 H4          2.1730    2.2300   -3.9100 hn        1 MOL      0.308987
     16 H5          1.8420    1.4770   -1.0700 h1        1 MOL      0.200700
     17 H6          4.1660    0.8020   -2.9750 hc        1 MOL      0.102838
     18 H7          2.7560   -0.2460   -2.6630 hc        1 MOL      0.102838
     19 N2          2.5980    4.0420   -0.9970 n         1 MOL     -0.573040
     20 C7          3.2530    5.2270   -0.4020 c3        1 MOL     -0.059235
     21 C8          4.1600    4.9560    0.8370 c         1 MOL      0.465062
     22 O5          5.0400    5.8080    1.1110 o         1 MOL     -0.563674
     23 C9          2.2440    6.3280   -0.0830 c3        1 MOL     -0.036926
     24 C10         1.4480    6.8170   -1.2470 c3        1 MOL      0.122636
     25 C11         0.6480    8.0950   -0.9590 c3        1 MOL      0.032006
     26 C12        -0.1290    8.7040   -2.0940 c3        1 MOL      0.038150
     27 N3         -1.1180    7.7890   -2.7190 n4        1 MOL     -0.431734
     28 H8          1.5850    4.0400   -1.0220 hn        1 MOL      0.376255
     29 H9          4.0060    5.4790   -1.1590 h1        1 MOL      0.105630
     30 H10         2.6530    7.2340    0.3680 hc        1 MOL      0.028256
     31 H11         1.5660    5.9530    0.6800 hc        1 MOL      0.028256
     32 H12         0.8280    5.9570   -1.5130 hc        1 MOL     -0.031435
     33 H13         2.1550    7.1280   -2.0280 hc        1 MOL     -0.031435
     34 H14         1.3430    8.8770   -0.6590 hc        1 MOL      0.029672
     35 H15        -0.0700    7.8800   -0.1630 hc        1 MOL      0.029672
     36 H16         0.5550    9.0770   -2.8500 hx        1 MOL      0.073224
     37 H17        -0.5310    9.6330   -1.6840 hx        1 MOL      0.073224
     38 H18        -0.6550    7.2540   -3.4380 hn        1 MOL      0.349204
     39 H19        -1.7000    7.2100   -2.1310 hn        1 MOL      0.349204
     40 H20        -1.8440    8.3040   -3.1900 hn        1 MOL      0.349204
     41 N4          4.0420    3.8150    1.4540 n         1 MOL     -0.244201
     42 C13         4.6690    3.4940    2.7540 c3        1 MOL      0.089503
     43 C14         5.8030    2.4240    2.5750 c         1 MOL      0.372080
     44 O6          6.6890    2.2790    3.4050 o         1 MOL     -0.512758
     45 C15         3.6530    3.1440    3.8590 c3        1 MOL     -0.202550
     46 C16         2.6970    2.0030    3.5490 c         1 MOL      0.821180
     47 O7          1.5270    2.0100    4.0390 o         1 MOL     -0.713707
     48 O8          3.0120    1.0150    2.8370 o         1 MOL     -0.713707
     49 H21         3.3240    3.2180    1.0440 hn        1 MOL      0.244292
     50 H22         5.2500    4.3420    3.1050 h1        1 MOL      0.080320
     51 H23         3.1040    4.0720    4.0410 hc        1 MOL      0.047760
     52 H24         4.1290    2.9760    4.8240 hc        1 MOL      0.047760
     53 N5          5.8640    1.7470    1.4010 n         1 MOL      0.056308
     54 C17         7.0320    1.1140    0.8840 c3        1 MOL     -0.224996
     55 C18         7.3760   -0.2270    1.5190 c         1 MOL      0.565576
     56 O9          8.4270   -0.3680    2.0730 o         1 MOL     -0.569637
     57 H25         5.0600    1.8570    0.8050 hn        1 MOL     -0.020931
     58 H26         7.8510    1.8230    0.8090 h1        1 MOL      0.098658
     59 H27         6.8500    0.9450   -0.1850 h1        1 MOL      0.098658
     60 N6          6.4990   -1.2480    1.3350 n         1 MOL     -0.252533
     61 C19         6.6720   -2.6810    1.7640 c3        1 MOL      0.067781
     62 C20         6.6090   -3.6700    0.5290 c         1 MOL      0.333535
     63 O10         6.7650   -4.8860    0.6670 o         1 MOL     -0.495770
     64 C21         5.5960   -3.0310    2.7970 c3        1 MOL     -0.029966
     65 C22         4.2720   -2.5520    2.4210 c         1 MOL      0.626083
     66 O11         3.5510   -1.9080    3.2280 o         1 MOL     -0.713899
     67 O12         3.8350   -2.7410    1.2670 o         1 MOL     -0.713899
     68 H28         5.6800   -1.0410    0.7700 hn        1 MOL      0.095910
     69 H29         7.6490   -2.8970    2.1790 h1        1 MOL      0.071617
     70 H30         5.9530   -2.5720    3.7210 hc        1 MOL      0.027236
     71 H31         5.6550   -4.0970    3.0160 hc        1 MOL      0.027236
     72 N7          6.5950   -3.0800   -0.6820 n         1 MOL     -0.220866
     73 C23         6.4310   -3.7320   -1.9820 c3        1 MOL     -0.061651
     74 C24         4.9560   -4.3190   -2.2100 c         1 MOL      0.541540
     75 O13         4.7560   -5.1460   -3.0670 o         1 MOL     -0.579807
     76 H32         6.8300   -2.0950   -0.7010 hn        1 MOL      0.210016
     77 H33         7.1530   -4.5230   -2.1850 h1        1 MOL      0.062500
     78 H34         6.5030   -2.9750   -2.7650 h1        1 MOL      0.062500
     79 N8          3.9650   -3.8920   -1.4190 n         1 MOL     -0.336377
     80 C25         2.5670   -4.3660   -1.5090 c3        1 MOL     -0.136160
     81 C26         1.5010   -3.2680   -1.4920 c         1 MOL      0.694900
     82 O14         1.4910   -2.4910   -0.5330 o         1 MOL     -0.615731
     83 C27         2.2390   -5.3690   -0.3840 c3        1 MOL      0.605398
     84 C28         2.5900   -6.8640   -0.6160 c3        1 MOL     -0.313271
     85 O15         2.8590   -5.0940    0.8640 oh        1 MOL     -0.707834
     86 H35         4.1600   -3.2150   -0.6980 hn        1 MOL      0.288680
     87 H36         2.5060   -5.0040   -2.3960 h1        1 MOL      0.071376
     88 H37         1.1550   -5.4350   -0.2690 h1        1 MOL     -0.099394
     89 H38         2.9390   -4.1390    0.8770 ho        1 MOL      0.493893
     90 H39         2.4980   -7.4670    0.2840 hc        1 MOL      0.062734
     91 H40         1.8690   -7.1920   -1.3590 hc        1 MOL      0.062734
     92 H41         3.5350   -6.9420   -1.1650 hc        1 MOL      0.062734
     93 N9          0.5830   -3.3560   -2.4330 n         1 MOL     -0.738366
     94 C29        -0.6030   -2.4450   -2.5510 c3        1 MOL      0.046450
     95 C30        -1.8420   -3.0750   -1.9580 c         1 MOL      0.554366
     96 O16        -2.2310   -4.2690   -2.2210 o         1 MOL     -0.571737
     97 C31        -0.7940   -2.1070   -4.0430 c3        1 MOL      0.087711
     98 C32         0.3330   -1.2150   -4.5310 c3        1 MOL      0.254869
     99 C33        -2.1530   -1.4840   -4.2940 c3        1 MOL     -0.372096
    100 C34         0.4950   -0.9950   -6.0030 c3        1 MOL     -0.336501
    101 H42         0.6910   -4.0920   -3.1160 hn        1 MOL      0.351739
    102 H43        -0.4150   -1.4700   -2.1120 h1        1 MOL      0.154481
    103 H44        -0.6250   -2.9870   -4.6680 hc        1 MOL      0.011859
    104 H45         1.3450   -1.3880   -4.1750 hc        1 MOL     -0.032852
    105 H46         0.1630   -0.2830   -4.0010 hc        1 MOL     -0.032852
    106 H47        -2.2780   -0.5310   -3.7760 hc        1 MOL      0.070924
    107 H48        -2.2510   -1.2510   -5.3570 hc        1 MOL      0.070924
    108 H49        -2.8810   -2.2240   -3.9650 hc        1 MOL      0.070924
    109 H50        -0.3650   -0.3840   -6.2730 hc        1 MOL      0.078057
    110 H51         1.4070   -0.4360   -6.2450 hc        1 MOL      0.078057
    111 H52         0.5000   -1.9870   -6.4530 hc        1 MOL      0.078057
    112 N10        -2.5400   -2.3240   -1.0540 n         1 MOL     -0.086523
    113 C35        -3.7900   -2.8170   -0.3940 c3        1 MOL     -0.053792
    114 C36        -5.0170   -2.2170   -0.9960 c         1 MOL      0.441779
    115 O17        -4.9700   -1.2240   -1.7040 o         1 MOL     -0.396126
    116 C37        -3.7080   -2.4980    1.1380 c3        1 MOL      0.079940
    117 C38        -2.3250   -2.9020    1.7520 c3        1 MOL     -0.496788
    118 O18        -4.0970   -1.1420    1.3850 oh        1 MOL     -0.306813
    119 H53        -2.1500   -1.4300   -0.7830 hn        1 MOL      0.143856
    120 H54        -3.9120   -3.8910   -0.5330 h1        1 MOL      0.088509
    121 H55        -4.4420   -2.9800    1.7880 h1        1 MOL      0.014201
    122 H56        -4.0350   -0.9610    2.3260 ho        1 MOL      0.347054
    123 H57        -1.9010   -3.7310    1.1970 hc        1 MOL      0.146814
    124 H58        -1.6220   -2.0860    1.5920 hc        1 MOL      0.146814
    125 H59        -2.4060   -3.0990    2.8230 hc        1 MOL      0.146814
    126 N11        -6.2190   -2.7480   -0.6210 n         1 MOL     -0.395043
    127 C39        -7.6090   -2.1300   -0.9420 c3        1 MOL     -0.021268
    128 C40        -7.5870   -0.6040   -0.6260 c         1 MOL      0.390317
    129 O19        -7.9160    0.1980   -1.4340 o         1 MOL     -0.487864
    130 C41        -8.7990   -2.8060   -0.1970 c3        1 MOL      0.245790
    131 C42        -9.1080   -4.2740   -0.6480 c3        1 MOL     -0.348287
    132 O20        -8.5600   -2.8490    1.1760 oh        1 MOL     -0.664221
    133 H60        -6.2890   -3.5560   -0.0220 hn        1 MOL      0.280467
    134 H61        -7.8360   -2.1970   -2.0080 h1        1 MOL      0.119371
    135 H62        -9.7330   -2.2910   -0.4240 h1        1 MOL      0.056234
    136 H63        -9.0800   -3.5220    1.6260 ho        1 MOL      0.439147
    137 H64        -9.2950   -4.3040   -1.7160 hc        1 MOL      0.100112
    138 H65        -8.1420   -4.7540   -0.4690 hc        1 MOL      0.100112
    139 H66        -9.8300   -4.6890    0.0560 hc        1 MOL      0.100112
    140 N12        -7.1470   -0.2900    0.5810 n         1 MOL     -0.252173
    141 C43        -7.0130    1.0910    1.1350 c3        1 MOL      0.004952
    142 C44        -5.8970    1.9010    0.4500 c         1 MOL      0.317052
    143 O21        -6.0930    3.1250    0.3170 o         1 MOL     -0.533393
    144 C45        -6.7400    1.1460    2.6700 c3        1 MOL     -0.071117
    145 C46        -7.9660    0.6920    3.5290 c3        1 MOL      0.110207
    146 C47        -7.8370    1.0390    5.0380 c3        1 MOL      0.052618
    147 C48        -8.7360    0.2780    5.9450 c3        1 MOL     -0.115572
    148 N13        -8.1050    0.1760    7.2810 n4        1 MOL     -0.081856
    149 H67        -6.8130   -1.0550    1.1580 hn        1 MOL      0.204171
    150 H68        -7.9260    1.6570    0.9360 h1        1 MOL      0.122048
    151 H69        -6.5120    2.1760    2.9490 hc        1 MOL      0.003823
    152 H70        -5.9580    0.4510    2.9640 hc        1 MOL      0.003823
    153 H71        -8.2190   -0.3530    3.4140 hc        1 MOL     -0.022051
    154 H72        -8.8390    1.1510    3.0770 hc        1 MOL     -0.022051
    155 H73        -8.0330    2.1030    5.1270 hc        1 MOL      0.029051
    156 H74        -6.8130    0.8110    5.3290 hc        1 MOL      0.029051
    157 H75        -8.9100   -0.7120    5.5420 hx        1 MOL      0.104665
    158 H76        -9.6800    0.8140    6.0590 hx        1 MOL      0.104665
    159 H77        -8.7460    0.0910    8.0560 hn        1 MOL      0.214349
    160 H78        -7.4190   -0.5660    7.3720 hn        1 MOL      0.214349
    161 H79        -7.6090    1.0300    7.4900 hn        1 MOL      0.214349
    162 N14        -4.9060    1.2640   -0.0740 n         1 MOL      0.225197
    163 C49        -3.9760    1.9410   -0.9420 c3        1 MOL     -0.319071
    164 C50        -4.4260    2.2180   -2.3410 c         1 MOL      0.559368
    165 O22        -4.1380    3.3190   -2.8360 o         1 MOL     -0.590531
    166 C51        -2.5500    1.2680   -0.8430 c3        1 MOL      0.240452
    167 C52        -1.8510    1.4830    0.4940 c3        1 MOL     -0.162371
    168 C53        -0.4870    0.7720    0.5220 c         1 MOL      0.717660
    169 O23         0.5210    1.3330    1.0480 o         1 MOL     -0.774328
    170 O24        -0.3240   -0.4040    0.1260 o         1 MOL     -0.774328
    171 H80        -4.6830    0.3180    0.2130 hn        1 MOL     -0.127751
    172 H81        -3.6700    2.9250   -0.5820 h1        1 MOL      0.109527
    173 H82        -2.0500    1.8050   -1.6540 hc        1 MOL     -0.034399
    174 H83        -2.5880    0.2160   -1.1450 hc        1 MOL     -0.034399
    175 H84        -2.4720    1.1930    1.3490 hc        1 MOL      0.029596
    176 H85        -1.7300    2.5630    0.5600 hc        1 MOL      0.029596
    177 N15        -5.2480    1.3730   -2.9800 n         1 MOL     -0.169542
    178 C54        -6.0540    1.6610   -4.1700 c3        1 MOL     -0.277304
    179 H86        -6.3000    2.7230   -4.1930 h1        1 MOL      0.111980
    180 H87        -5.4880    1.4000   -5.0640 h1        1 MOL      0.111980
    181 H88        -6.9720    1.0750   -4.1370 h1        1 MOL      0.111980
    182 H89        -5.3680    0.4870   -2.5000 hn        1 MOL      0.193143
    183 Ca1         1.8000   -0.9030    1.6130 Ca        1 MOL      1.747816
    184 O25         0.1920   -0.4130    3.8190 oh        1 MOL     -0.807744
    185 H90        -0.6440   -0.3200    4.2740 ho        1 MOL      0.385801
    186 H91         0.6860    0.3720    4.0440 ho        1 MOL      0.385801
    187 O26         0.6010   -3.2210    2.4470 oh        1 MOL     -0.807744
    188 H92         0.5160   -4.0710    2.0320 ho        1 MOL      0.385801
    189 H93         0.3040   -3.3640    3.3450 ho        1 MOL      0.385801
@<TRIPOS>BOND
     1    1    2 1   
     2    1    4 1   
     3    1    5 1   
     4    1    6 1   
     5    2    3 2   
     6    2    7 1   
     7    7    8 1   
     8    7   15 1   
     9    8    9 1   
    10    8   11 1   
    11    8   16 1   
    12    9   10 2   
    13    9   19 1   
    14   11   12 1   
    15   11   17 1   
    16   11   18 1   
    17   12   13 1   
    18   12   14 1   
    19   19   20 1   
    20   19   28 1   
    21   20   21 1   
    22   20   23 1   
    23   20   29 1   
    24   21   22 2   
    25   21   41 1   
    26   23   24 1   
    27   23   30 1   
    28   23   31 1   
    29   24   25 1   
    30   24   32 1   
    31   24   33 1   
    32   25   26 1   
    33   25   34 1   
    34   25   35 1   
    35   26   27 1   
    36   26   36 1   
    37   26   37 1   
    38   27   38 1   
    39   27   39 1   
    40   27   40 1   
    41   41   42 1   
    42   41   49 1   
    43   42   43 1   
    44   42   45 1   
    45   42   50 1   
    46   43   44 2   
    47   43   53 1   
    48   45   46 1   
    49   45   51 1   
    50   45   52 1   
    51   46   47 1   
    52   46   48 1   
    53   53   54 1   
    54   53   57 1   
    55   54   55 1   
    56   54   58 1   
    57   54   59 1   
    58   55   56 2   
    59   55   60 1   
    60   60   61 1   
    61   60   68 1   
    62   61   62 1   
    63   61   64 1   
    64   61   69 1   
    65   62   63 2   
    66   62   72 1   
    67   64   65 1   
    68   64   70 1   
    69   64   71 1   
    70   65   66 1   
    71   65   67 1   
    72   72   73 1   
    73   72   76 1   
    74   73   74 1   
    75   73   77 1   
    76   73   78 1   
    77   74   75 2   
    78   74   79 1   
    79   79   80 1   
    80   79   86 1   
    81   80   81 1   
    82   80   83 1   
    83   80   87 1   
    84   81   82 2   
    85   81   93 1   
    86   83   84 1   
    87   83   85 1   
    88   83   88 1   
    89   84   90 1   
    90   84   91 1   
    91   84   92 1   
    92   85   89 1   
    93   93   94 1   
    94   93  101 1   
    95   94   95 1   
    96   94   97 1   
    97   94  102 1   
    98   95   96 2   
    99   95  112 1   
   100   97   98 1   
   101   97   99 1   
   102   97  103 1   
   103   98  100 1   
   104   98  104 1   
   105   98  105 1   
   106   99  106 1   
   107   99  107 1   
   108   99  108 1   
   109  100  109 1   
   110  100  110 1   
   111  100  111 1   
   112  112  113 1   
   113  112  119 1   
   114  113  114 1   
   115  113  116 1   
   116  113  120 1   
   117  114  115 2   
   118  114  126 1   
   119  116  117 1   
   120  116  118 1   
   121  116  121 1   
   122  117  123 1   
   123  117  124 1   
   124  117  125 1   
   125  118  122 1   
   126  126  127 1   
   127  126  133 1   
   128  127  128 1   
   129  127  130 1   
   130  127  134 1   
   131  128  129 2   
   132  128  140 1   
   133  130  131 1   
   134  130  132 1   
   135  130  135 1   
   136  131  137 1   
   137  131  138 1   
   138  131  139 1   
   139  132  136 1   
   140  140  141 1   
   141  140  149 1   
   142  141  142 1   
   143  141  144 1   
   144  141  150 1   
   145  142  143 2   
   146  142  162 1   
   147  144  145 1   
   148  144  151 1   
   149  144  152 1   
   150  145  146 1   
   151  145  153 1   
   152  145  154 1   
   153  146  147 1   
   154  146  155 1   
   155  146  156 1   
   156  147  148 1   
   157  147  157 1   
   158  147  158 1   
   159  148  159 1   
   160  148  160 1   
   161  148  161 1   
   162  162  163 1   
   163  162  171 1   
   164  163  164 1   
   165  163  166 1   
   166  163  172 1   
   167  164  165 2   
   168  164  177 1   
   169  166  167 1   
   170  166  173 1   
   171  166  174 1   
   172  167  168 1   
   173  167  175 1   
   174  167  176 1   
   175  168  169 1   
   176  168  170 1   
   177  177  178 1   
   178  177  182 1   
   179  178  179 1   
   180  178  180 1   
   181  178  181 1   
   182  184  185 1   
   183  184  186 1   
   184  187  188 1   
   185  187  189 1   
@<TRIPOS>SUBSTRUCTURE
     1 MOL         1 TEMP              0 ****  ****    0 ROOT
