@<TRIPOS>MOLECULE
MOL
  172   171     1     0     0
SMALL
resp


@<TRIPOS>ATOM
      1 C1          0.5570   -4.3010    5.3890 c3        1 MOL     -0.380587
      2 C2          1.0140   -3.9480    3.9690 c         1 MOL      0.769067
      3 O1          0.6200   -4.6690    3.0410 o         1 MOL     -0.614185
      4 H1          1.3740   -4.1190    6.0880 hc        1 MOL      0.084343
      5 H2         -0.2970   -3.6800    5.6610 hc        1 MOL      0.084343
      6 H3          0.2710   -5.3520    5.4290 hc        1 MOL      0.084343
      7 N1          1.8400   -2.9430    3.8320 n         1 MOL     -0.628663
      8 C3          2.3280   -2.4470    2.5210 c3        1 MOL      0.015051
      9 C4          2.9960   -3.5100    1.6570 c         1 MOL      0.588393
     10 O2          3.9710   -4.1700    2.0570 o         1 MOL     -0.593533
     11 C5          3.3260   -1.3890    2.8550 c3        1 MOL      0.024381
     12 C6          3.8950   -0.6400    1.6560 c         1 MOL      0.677451
     13 O3          4.8540    0.1610    1.9250 o         1 MOL     -0.703066
     14 O4          3.4000   -0.7790    0.4880 o         1 MOL     -0.703066
     15 H4          2.0420   -2.4180    4.6720 hn        1 MOL      0.321601
     16 H5          1.5460   -1.9650    1.9360 h1        1 MOL      0.088615
     17 H6          4.1220   -1.7910    3.4770 hc        1 MOL      0.000696
     18 H7          2.8200   -0.6000    3.4090 hc        1 MOL      0.000696
     19 N2          2.3850   -3.9220    0.5390 n         1 MOL     -0.096233
     20 C7          2.7180   -5.2830    0.0080 c3        1 MOL      0.150735
     21 C8          3.8870   -5.2530   -1.0130 c         1 MOL      0.406697
     22 O5          4.7230   -6.1270   -1.0330 o         1 MOL     -0.541051
     23 C9          1.4030   -5.8080   -0.6290 c3        1 MOL     -0.325519
     24 H8          1.5080   -3.5210    0.2470 hn        1 MOL      0.154470
     25 H9          2.9470   -5.9590    0.8380 h1        1 MOL      0.031307
     26 H10         1.2390   -5.3470   -1.6010 hc        1 MOL      0.075420
     27 H11         1.4620   -6.8710   -0.8160 hc        1 MOL      0.075420
     28 H12         0.5500   -5.5350    0.0040 hc        1 MOL      0.075420
     29 N3          4.0140   -4.1050   -1.7570 n         1 MOL     -0.228964
     30 C10         5.1830   -3.8210   -2.5970 c3        1 MOL     -0.107328
     31 C11         6.3480   -3.1910   -1.8500 c         1 MOL      0.420748
     32 O6          7.4970   -3.2340   -2.2740 o         1 MOL     -0.563391
     33 C12         4.7950   -2.9080   -3.7860 c3        1 MOL     -0.071258
     34 C13         3.8000   -1.7050   -3.5780 c         1 MOL      0.671472
     35 O7          3.4770   -1.0620   -4.6010 o         1 MOL     -0.716442
     36 O8          3.4040   -1.4250   -2.4190 o         1 MOL     -0.716442
     37 H13         3.2650   -3.4300   -1.8270 hn        1 MOL      0.221537
     38 H14         5.4890   -4.7610   -3.0630 h1        1 MOL      0.097501
     39 H15         4.2170   -3.5560   -4.4490 hc        1 MOL      0.023001
     40 H16         5.6730   -2.5740   -4.3460 hc        1 MOL      0.023001
     41 N4          6.0640   -2.5940   -0.6930 n         1 MOL      0.160093
     42 C14         6.9400   -1.9940    0.3100 c3        1 MOL     -0.086164
     43 C15         7.5970   -0.7140   -0.1790 c         1 MOL      0.591846
     44 O9          8.7860   -0.6890   -0.2400 o         1 MOL     -0.584023
     45 H17         5.1030   -2.5840   -0.3870 hn        1 MOL     -0.130557
     46 H18         7.6960   -2.7380    0.5650 h1        1 MOL      0.039114
     47 H19         6.3360   -1.7200    1.1770 h1        1 MOL      0.039114
     48 N5          6.7650    0.2070   -0.5380 n         1 MOL     -0.296051
     49 C16         7.1360    1.4250   -1.1390 c3        1 MOL     -0.021086
     50 C17         7.0760    2.6340   -0.1230 c         1 MOL      0.486282
     51 O10         7.7230    3.6190   -0.3410 o         1 MOL     -0.572095
     52 C18         6.2960    1.6100   -2.4200 c3        1 MOL     -0.109835
     53 C19         4.8740    2.0600   -2.0670 c         1 MOL      0.626136
     54 N6          4.4370    3.1910   -2.5640 n         1 MOL     -0.795451
     55 O11         4.0940    1.3210   -1.4300 o         1 MOL     -0.549553
     56 H20         5.7950   -0.0070   -0.3380 hn        1 MOL      0.087678
     57 H21         8.1780    1.4190   -1.4620 h1        1 MOL      0.100434
     58 H22         6.2750    0.8170   -3.1630 hc        1 MOL      0.065582
     59 H23         6.7000    2.4220   -3.0210 hc        1 MOL      0.065582
     60 H24         5.0330    3.5700   -3.2950 hn        1 MOL      0.363432
     61 H25         3.5220    3.5620   -2.3520 hn        1 MOL      0.363432
     62 N7          6.3500    2.5730    0.9930 n         1 MOL     -0.255526
     63 C20         6.2410    3.6960    1.9860 c3        1 MOL     -0.060768
     64 C21         4.8360    4.1970    2.0740 c         1 MOL      0.572992
     65 O12         4.5970    5.0000    2.9770 o         1 MOL     -0.599837
     66 H26         5.7230    1.7810    1.1120 hn        1 MOL      0.235694
     67 H27         6.9060    4.4600    1.5910 h1        1 MOL      0.084507
     68 H28         6.6050    3.4120    2.9650 h1        1 MOL      0.084507
     69 N8          3.9860    3.9480    1.0700 n         1 MOL     -0.308964
     70 C22         2.6600    4.5150    0.8710 c3        1 MOL      0.159133
     71 C23         1.5270    3.5180    0.8840 c         1 MOL      0.341227
     72 O13         1.6460    2.3870    0.3590 o         1 MOL     -0.465683
     73 C24         2.6670    5.4680   -0.3480 c3        1 MOL      0.314030
     74 C25         1.5420    6.4990   -0.1200 c3        1 MOL     -0.303633
     75 O14         3.7910    6.3050   -0.3160 oh        1 MOL     -0.603760
     76 H29         4.4050    3.4080    0.3270 hn        1 MOL      0.130612
     77 H30         2.4590    5.1430    1.7300 h1        1 MOL      0.048144
     78 H31         2.5240    4.9680   -1.3080 h1        1 MOL      0.033777
     79 H32         3.6730    6.9010   -1.0590 ho        1 MOL      0.375614
     80 H33         1.6000    7.2660   -0.9000 hc        1 MOL      0.065561
     81 H34         0.5840    6.0650   -0.4020 hc        1 MOL      0.065561
     82 H35         1.4470    6.9180    0.8880 hc        1 MOL      0.065561
     83 N9          0.3820    3.7940    1.4700 n         1 MOL     -0.215416
     84 C26        -0.7670    2.8920    1.5310 c3        1 MOL      0.130087
     85 C27        -1.8030    3.2740    0.4660 c         1 MOL      0.375369
     86 O15        -2.1640    4.4000    0.1860 o         1 MOL     -0.560197
     87 C28        -1.4620    3.0920    2.9400 c3        1 MOL      0.043967
     88 C29        -0.5850    2.4930    4.0560 c3        1 MOL      0.042348
     89 C30        -2.9260    2.5340    3.0890 c3        1 MOL     -0.199925
     90 C31        -0.3770    1.0100    4.0560 c3        1 MOL      0.089207
     91 H36         0.1230    4.7100    1.8100 hn        1 MOL      0.189571
     92 H37        -0.4580    1.8500    1.4800 h1        1 MOL      0.084704
     93 H38        -1.4370    4.1470    3.2080 hc        1 MOL      0.006144
     94 H39        -1.1350    2.7100    4.9710 hc        1 MOL     -0.040899
     95 H40         0.4090    2.9550    3.9770 hc        1 MOL     -0.040899
     96 H41        -3.2750    2.6540    4.1130 hc        1 MOL      0.047781
     97 H42        -3.5400    3.0970    2.3870 hc        1 MOL      0.047781
     98 H43        -2.9690    1.4780    2.8070 hc        1 MOL      0.047781
     99 H44        -1.3760    0.5710    4.0320 hc        1 MOL     -0.023996
    100 H45         0.1110    0.7240    3.1280 hc        1 MOL     -0.023996
    101 H46         0.1600    0.6740    4.9520 hc        1 MOL     -0.023996
    102 N10        -2.4100    2.2130   -0.1250 n         1 MOL     -0.038854
    103 C32        -3.3610    2.2770   -1.3090 c3        1 MOL      0.113011
    104 C33        -4.7770    1.8070   -0.8240 c         1 MOL      0.346797
    105 O16        -4.8560    1.1730    0.2360 o         1 MOL     -0.351971
    106 C34        -2.8130    1.2620   -2.3480 c3        1 MOL     -0.192798
    107 C35        -1.3560    1.3690   -2.7360 c         1 MOL      0.730614
    108 O17        -0.9860    2.1260   -3.6340 o         1 MOL     -0.688202
    109 O18        -0.5280    0.5550   -2.1780 o         1 MOL     -0.688202
    110 H47        -2.0650    1.3120    0.1610 hn        1 MOL     -0.090102
    111 H48        -3.4890    3.2790   -1.7330 h1        1 MOL      0.056604
    112 H49        -3.4650    1.4050   -3.2060 hc        1 MOL      0.044915
    113 H50        -2.9760    0.2580   -1.9280 hc        1 MOL      0.044915
    114 N11        -5.8730    1.8860   -1.6030 n         1 MOL     -0.498070
    115 C36        -7.1860    1.4780   -1.1490 c3        1 MOL      0.234985
    116 C37        -7.2940    0.0010   -0.6380 c         1 MOL      0.388976
    117 O19        -7.9170   -0.1490    0.4560 o         1 MOL     -0.488857
    118 C38        -8.2350    1.7780   -2.2240 c3        1 MOL     -0.201480
    119 C39        -9.5780    1.1770   -1.8490 ca        1 MOL      0.091698
    120 C40       -10.2680    1.7960   -0.7670 ca        1 MOL     -0.256960
    121 C41       -10.0020   -0.0750   -2.3270 ca        1 MOL     -0.256960
    122 C42       -11.4170    1.1500   -0.3060 ca        1 MOL      0.038885
    123 C43       -11.2260   -0.6010   -1.9620 ca        1 MOL      0.038885
    124 C44       -11.9600    0.0290   -0.9840 ca        1 MOL     -0.236767
    125 H51        -5.8000    2.4230   -2.4530 hn        1 MOL      0.294740
    126 H52        -7.4110    2.1570   -0.3260 h1        1 MOL      0.068145
    127 H53        -7.8640    1.4930   -3.2040 hc        1 MOL      0.069482
    128 H54        -8.3060    2.8660   -2.2120 hc        1 MOL      0.069482
    129 H55        -9.8450    2.6460   -0.2530 ha        1 MOL      0.146705
    130 H56        -9.4520   -0.5920   -3.0920 ha        1 MOL      0.146705
    131 H57       -11.9580    1.6470    0.5000 ha        1 MOL      0.073280
    132 H58       -11.6720   -1.3720   -2.5730 ha        1 MOL      0.073280
    133 H59       -12.9070   -0.3500   -0.6330 ha        1 MOL      0.122642
    134 N12        -6.7360   -1.0500   -1.3680 n         1 MOL      0.059310
    135 C45        -6.8580   -2.4620   -0.8630 c3        1 MOL     -0.041172
    136 C46        -6.0480   -2.6710    0.4800 c         1 MOL      0.346327
    137 O20        -6.4480   -3.4300    1.3290 o         1 MOL     -0.476418
    138 C47        -6.3000   -3.3830   -1.9770 c3        1 MOL     -0.040934
    139 C48        -6.3410   -2.4990   -3.1590 c3        1 MOL      0.185292
    140 C49        -6.0730   -1.0660   -2.6260 c3        1 MOL     -0.320477
    141 H60        -7.9030   -2.6810   -0.6680 h1        1 MOL      0.060382
    142 H61        -5.2290   -3.5070   -1.8580 hc        1 MOL      0.038819
    143 H62        -6.7090   -4.3770   -2.1460 hc        1 MOL      0.038819
    144 H63        -5.8140   -2.8550   -4.0470 hc        1 MOL     -0.031221
    145 H64        -7.3660   -2.4560   -3.5170 hc        1 MOL     -0.031221
    146 H65        -5.0020   -1.0290   -2.4030 h1        1 MOL      0.099401
    147 H66        -6.4780   -0.3000   -3.2830 h1        1 MOL      0.099401
    148 N13        -4.9310   -1.9360    0.6710 n         1 MOL     -0.207981
    149 C50        -4.0140   -2.0110    1.8060 c3        1 MOL     -0.183054
    150 C51        -4.6410   -1.2240    3.0260 c         1 MOL      0.455833
    151 O21        -4.6860   -1.7470    4.1550 o         1 MOL     -0.570219
    152 C52        -2.5720   -1.4640    1.4210 c3        1 MOL      0.173654
    153 C53        -1.8170   -2.2700    0.3860 c3        1 MOL     -0.157685
    154 C54        -0.4080   -1.6140    0.1230 c         1 MOL      0.778918
    155 O22        -0.0440   -0.5120    0.4840 o         1 MOL     -0.782800
    156 O23         0.4170   -2.1920   -0.6170 o         1 MOL     -0.782800
    157 H67        -4.7210   -1.1550    0.0590 hn        1 MOL      0.206801
    158 H68        -3.9710   -3.0650    2.0620 h1        1 MOL      0.135269
    159 H69        -1.9720   -1.3660    2.3310 hc        1 MOL     -0.005997
    160 H70        -2.7180   -0.4360    1.0790 hc        1 MOL     -0.005997
    161 H71        -2.3930   -2.1850   -0.5380 hc        1 MOL      0.044065
    162 H72        -1.7380   -3.3220    0.6560 hc        1 MOL      0.044065
    163 N14        -5.4010   -0.1610    2.7960 n         1 MOL      0.025472
    164 C55        -6.2690    0.4340    3.8240 c3        1 MOL     -0.125672
    165 H73        -7.1250    0.9090    3.3450 h1        1 MOL      0.057530
    166 H74        -6.6180   -0.3460    4.5010 h1        1 MOL      0.057530
    167 H75        -5.7070    1.1800    4.3870 h1        1 MOL      0.057530
    168 H76        -5.4180    0.2500    1.8770 hn        1 MOL     -0.005379
    169 Ca1         1.8410    0.1120   -1.2030 Ca        1 MOL      1.708250
    170 O24         1.5830    2.2240   -2.9790 oh        1 MOL     -0.963599
    171 H77         2.0370    2.1320   -3.8250 ho        1 MOL      0.440189
    172 H78         0.6650    2.3110   -3.2140 ho        1 MOL      0.440189
@<TRIPOS>BOND
     1    1    2 1   
     2    1    4 1   
     3    1    5 1   
     4    1    6 1   
     5    2    3 2   
     6    2    7 1   
     7    7    8 1   
     8    7   15 1   
     9    8    9 1   
    10    8   11 1   
    11    8   16 1   
    12    9   10 2   
    13    9   19 1   
    14   11   12 1   
    15   11   17 1   
    16   11   18 1   
    17   12   13 1   
    18   12   14 1   
    19   19   20 1   
    20   19   24 1   
    21   20   21 1   
    22   20   23 1   
    23   20   25 1   
    24   21   22 2   
    25   21   29 1   
    26   23   26 1   
    27   23   27 1   
    28   23   28 1   
    29   29   30 1   
    30   29   37 1   
    31   30   31 1   
    32   30   33 1   
    33   30   38 1   
    34   31   32 2   
    35   31   41 1   
    36   33   34 1   
    37   33   39 1   
    38   33   40 1   
    39   34   35 1   
    40   34   36 1   
    41   41   42 1   
    42   41   45 1   
    43   42   43 1   
    44   42   46 1   
    45   42   47 1   
    46   43   44 2   
    47   43   48 1   
    48   48   49 1   
    49   48   56 1   
    50   49   50 1   
    51   49   52 1   
    52   49   57 1   
    53   50   51 2   
    54   50   62 1   
    55   52   53 1   
    56   52   58 1   
    57   52   59 1   
    58   53   54 1   
    59   53   55 2   
    60   54   60 1   
    61   54   61 1   
    62   62   63 1   
    63   62   66 1   
    64   63   64 1   
    65   63   67 1   
    66   63   68 1   
    67   64   65 2   
    68   64   69 1   
    69   69   70 1   
    70   69   76 1   
    71   70   71 1   
    72   70   73 1   
    73   70   77 1   
    74   71   72 2   
    75   71   83 1   
    76   73   74 1   
    77   73   75 1   
    78   73   78 1   
    79   74   80 1   
    80   74   81 1   
    81   74   82 1   
    82   75   79 1   
    83   83   84 1   
    84   83   91 1   
    85   84   85 1   
    86   84   87 1   
    87   84   92 1   
    88   85   86 2   
    89   85  102 1   
    90   87   88 1   
    91   87   89 1   
    92   87   93 1   
    93   88   90 1   
    94   88   94 1   
    95   88   95 1   
    96   89   96 1   
    97   89   97 1   
    98   89   98 1   
    99   90   99 1   
   100   90  100 1   
   101   90  101 1   
   102  102  103 1   
   103  102  110 1   
   104  103  104 1   
   105  103  106 1   
   106  103  111 1   
   107  104  105 2   
   108  104  114 1   
   109  106  107 1   
   110  106  112 1   
   111  106  113 1   
   112  107  108 1   
   113  107  109 1   
   114  114  115 1   
   115  114  125 1   
   116  115  116 1   
   117  115  118 1   
   118  115  126 1   
   119  116  117 2   
   120  116  134 1   
   121  118  119 1   
   122  118  127 1   
   123  118  128 1   
   124  119  120 ar  
   125  119  121 ar  
   126  120  122 ar  
   127  120  129 1   
   128  121  123 ar  
   129  121  130 1   
   130  122  124 ar  
   131  122  131 1   
   132  123  124 ar  
   133  123  132 1   
   134  124  133 1   
   135  134  135 1   
   136  134  140 1   
   137  135  136 1   
   138  135  138 1   
   139  135  141 1   
   140  136  137 2   
   141  136  148 1   
   142  138  139 1   
   143  138  142 1   
   144  138  143 1   
   145  139  140 1   
   146  139  144 1   
   147  139  145 1   
   148  140  146 1   
   149  140  147 1   
   150  148  149 1   
   151  148  157 1   
   152  149  150 1   
   153  149  152 1   
   154  149  158 1   
   155  150  151 2   
   156  150  163 1   
   157  152  153 1   
   158  152  159 1   
   159  152  160 1   
   160  153  154 1   
   161  153  161 1   
   162  153  162 1   
   163  154  155 1   
   164  154  156 1   
   165  163  164 1   
   166  163  168 1   
   167  164  165 1   
   168  164  166 1   
   169  164  167 1   
   170  170  171 1   
   171  170  172 1   
@<TRIPOS>SUBSTRUCTURE
     1 MOL         1 TEMP              0 ****  ****    0 ROOT
