@<TRIPOS>MOLECULE
MOL
  189   185     1     0     0
SMALL
resp


@<TRIPOS>ATOM
      1 C1          0.7320    2.6370    4.8350 c3        1 MOL     -0.581394
      2 C2          0.0560    2.3000    3.5010 c         1 MOL      0.640183
      3 O1          0.5130    2.7240    2.4230 o         1 MOL     -0.596003
      4 H1          1.5320    1.9210    5.0290 hc        1 MOL      0.155488
      5 H2          1.1480    3.6430    4.7890 hc        1 MOL      0.155488
      6 H3         -0.0030    2.5850    5.6390 hc        1 MOL      0.155488
      7 N1         -1.1690    1.8440    3.5250 n         1 MOL     -0.455910
      8 C3         -2.0630    1.5030    2.4290 c3        1 MOL      0.128726
      9 C4         -2.7380    2.7770    1.8710 c         1 MOL      0.363631
     10 O2         -3.9720    2.8890    1.8300 o         1 MOL     -0.444820
     11 C5         -3.1480    0.4820    2.7040 c3        1 MOL     -0.120648
     12 C6         -3.9750    0.0880    1.4440 c         1 MOL      0.497989
     13 O3         -3.6780    0.2980    0.2800 o         1 MOL     -0.590426
     14 O4         -5.0860   -0.3990    1.7470 o         1 MOL     -0.590426
     15 H4         -1.5530    1.6870    4.4540 hn        1 MOL      0.270226
     16 H5         -1.3970    1.0780    1.6750 h1        1 MOL      0.036550
     17 H6         -3.8710    0.8070    3.4560 hc        1 MOL      0.046825
     18 H7         -2.6620   -0.4120    3.0840 hc        1 MOL      0.046825
     19 N2         -1.9640    3.6330    1.2600 n         1 MOL     -0.359413
     20 C7         -2.4880    4.9740    0.7860 c3        1 MOL      0.045600
     21 C8         -3.4350    4.9260   -0.4970 c         1 MOL      0.422235
     22 O5         -4.1170    5.9190   -0.7990 o         1 MOL     -0.562390
     23 C9         -1.2550    5.9740    0.5080 c3        1 MOL     -0.184571
     24 C10        -0.7010    6.5070    1.8060 c3        1 MOL      0.299697
     25 C11         0.5560    7.3850    1.5530 c3        1 MOL     -0.215998
     26 C12         1.1320    8.0740    2.8230 c3        1 MOL     -0.077385
     27 N3          1.7940    7.1340    3.6720 n4        1 MOL     -0.450153
     28 H8         -0.9930    3.3880    1.1750 hn        1 MOL      0.330024
     29 H9         -3.0750    5.4590    1.5650 h1        1 MOL      0.077611
     30 H10        -1.7080    6.8110   -0.0060 hc        1 MOL      0.063698
     31 H11        -0.4840    5.5170   -0.1080 hc        1 MOL      0.063698
     32 H12        -0.4160    5.6870    2.4690 hc        1 MOL     -0.046431
     33 H13        -1.4360    7.1730    2.2540 hc        1 MOL     -0.046431
     34 H14         0.2730    8.2340    0.9190 hc        1 MOL      0.077765
     35 H15         1.3470    6.8250    1.0570 hc        1 MOL      0.077765
     36 H16         0.3600    8.6560    3.3270 hx        1 MOL      0.132610
     37 H17         1.9020    8.7730    2.4740 hx        1 MOL      0.132610
     38 H18         1.1920    6.3980    4.0020 hn        1 MOL      0.363565
     39 H19         2.4190    6.6590    3.0360 hn        1 MOL      0.363565
     40 H20         2.2110    7.5810    4.4840 hn        1 MOL      0.363565
     41 N4         -3.5090    3.8280   -1.2400 n         1 MOL     -0.261489
     42 C13        -4.5360    3.6430   -2.3110 c3        1 MOL      0.174461
     43 C14        -5.7370    2.8960   -1.8390 c         1 MOL      0.340301
     44 O6         -6.7080    2.9230   -2.5760 o         1 MOL     -0.543308
     45 C15        -3.8490    3.0430   -3.5970 c3        1 MOL     -0.470105
     46 C16        -2.6090    2.1280   -3.4870 c         1 MOL      0.865272
     47 O7         -2.6320    1.3040   -2.5640 o         1 MOL     -0.721613
     48 O8         -1.6690    2.2650   -4.2870 o         1 MOL     -0.721613
     49 H21        -2.7990    3.1180   -1.1390 hn        1 MOL      0.197245
     50 H22        -4.9150    4.6090   -2.6180 h1        1 MOL      0.100516
     51 H23        -3.6880    3.9930   -4.1060 hc        1 MOL      0.106111
     52 H24        -4.7060    2.5860   -4.0960 hc        1 MOL      0.106111
     53 N5         -5.7760    2.3610   -0.6200 n         1 MOL      0.028987
     54 C17        -6.8480    1.7880    0.1080 c3        1 MOL     -0.288878
     55 C18        -7.3360    0.4080   -0.4510 c         1 MOL      0.588600
     56 O9         -8.5140    0.1600   -0.4410 o         1 MOL     -0.586558
     57 H25        -4.9120    2.5100   -0.1220 hn        1 MOL      0.046771
     58 H26        -7.6890    2.4790    0.0580 h1        1 MOL      0.121445
     59 H27        -6.4680    1.6790    1.1250 h1        1 MOL      0.121445
     60 N6         -6.4530   -0.3620   -1.0640 n         1 MOL     -0.201217
     61 C19        -6.7540   -1.6980   -1.6360 c3        1 MOL     -0.076532
     62 C20        -6.9090   -2.8270   -0.5810 c         1 MOL      0.403410
     63 O10        -7.4460   -3.8950   -0.8910 o         1 MOL     -0.517821
     64 C21        -5.8010   -2.0580   -2.8030 c3        1 MOL     -0.207646
     65 C22        -4.2940   -1.9040   -2.4370 c         1 MOL      0.774496
     66 O11        -3.8910   -2.2750   -1.3080 o         1 MOL     -0.734309
     67 O12        -3.4320   -1.4720   -3.2440 o         1 MOL     -0.734309
     68 H28        -5.4770   -0.1270   -0.9610 hn        1 MOL      0.133737
     69 H29        -7.7380   -1.4990   -2.0520 h1        1 MOL      0.125717
     70 H30        -5.9150   -1.4280   -3.6860 hc        1 MOL      0.072493
     71 H31        -5.8880   -3.1120   -3.0760 hc        1 MOL      0.072493
     72 N7         -6.5180   -2.5860    0.7020 n         1 MOL     -0.137273
     73 C23        -6.3700   -3.6660    1.6580 c3        1 MOL     -0.226703
     74 C24        -5.0640   -4.5200    1.5350 c         1 MOL      0.579825
     75 O13        -5.0520   -5.6690    2.0290 o         1 MOL     -0.574673
     76 H32        -6.2130   -1.6480    0.9400 hn        1 MOL      0.173463
     77 H33        -7.2390   -4.3120    1.5130 h1        1 MOL      0.103874
     78 H34        -6.3120   -3.2530    2.6590 h1        1 MOL      0.103874
     79 N8         -3.9300   -3.9540    1.0510 n         1 MOL     -0.347987
     80 C25        -2.6020   -4.6080    1.0380 c3        1 MOL     -0.290152
     81 C26        -1.6040   -3.5190    1.1440 c         1 MOL      0.797357
     82 O14        -1.8110   -2.3870    0.6930 o         1 MOL     -0.618193
     83 C27        -2.3870   -5.3880   -0.2740 c3        1 MOL      0.456383
     84 C28        -3.1230   -6.7030   -0.2810 c3        1 MOL     -0.456412
     85 O15        -2.7810   -4.7030   -1.4200 oh        1 MOL     -0.589390
     86 H35        -4.0870   -3.1180    0.5180 hn        1 MOL      0.302346
     87 H36        -2.5470   -5.2770    1.9040 h1        1 MOL      0.156798
     88 H37        -1.3290   -5.5790   -0.4480 h1        1 MOL     -0.013820
     89 H38        -3.3210   -3.9620   -1.1210 ho        1 MOL      0.394646
     90 H39        -4.1820   -6.4660   -0.2290 hc        1 MOL      0.116272
     91 H40        -3.0390   -7.2740   -1.2120 hc        1 MOL      0.116272
     92 H41        -2.7950   -7.2340    0.6120 hc        1 MOL      0.116272
     93 N9         -0.4590   -3.8930    1.7560 n         1 MOL     -0.778116
     94 C29         0.7860   -3.0720    1.8580 c3        1 MOL      0.042485
     95 C30         1.9330   -3.6110    0.9450 c         1 MOL      0.684119
     96 O16         2.3030   -4.7460    1.1320 o         1 MOL     -0.570458
     97 C31         1.1030   -2.8160    3.4470 c3        1 MOL      0.396422
     98 C32        -0.0680   -2.0790    4.2410 c3        1 MOL     -0.145297
     99 C33         2.3190   -1.9480    3.4410 c3        1 MOL     -0.635937
    100 C34         0.0660   -2.2640    5.8140 c3        1 MOL     -0.071968
    101 H42        -0.4220   -4.7990    2.2040 hn        1 MOL      0.337333
    102 H43         0.4800   -2.1080    1.4510 h1        1 MOL      0.065688
    103 H44         1.3220   -3.7930    3.8720 hc        1 MOL     -0.033827
    104 H45        -1.0090   -2.6000    4.0390 hc        1 MOL      0.062399
    105 H46         0.0510   -1.0230    4.0140 hc        1 MOL      0.062399
    106 H47         3.1130   -2.4810    2.9280 hc        1 MOL      0.132858
    107 H48         1.9690   -1.0160    2.9990 hc        1 MOL      0.132858
    108 H49         2.6010   -1.6870    4.4640 hc        1 MOL      0.132858
    109 H50         0.0340   -3.3300    6.0030 hc        1 MOL      0.019263
    110 H51         0.9790   -1.8210    6.2210 hc        1 MOL      0.019263
    111 H52        -0.7610   -1.8370    6.3850 hc        1 MOL      0.019263
    112 N10         2.4740   -2.7570    0.0540 n         1 MOL     -0.299980
    113 C35         3.6830   -3.1250   -0.6770 c3        1 MOL     -0.318608
    114 C36         4.9590   -2.8260    0.0850 c         1 MOL      0.551907
    115 O17         4.9880   -2.1520    1.1410 o         1 MOL     -0.485880
    116 C37         3.6930   -2.3570   -1.9530 c3        1 MOL      0.320796
    117 C38         2.5860   -2.7120   -2.9940 c3        1 MOL     -0.513638
    118 O18         3.5050   -0.9660   -1.8100 oh        1 MOL     -0.522392
    119 H53         2.0890   -1.8260   -0.0060 hn        1 MOL      0.140178
    120 H54         3.6210   -4.1490   -1.0540 h1        1 MOL      0.161480
    121 H55         4.7000   -2.4620   -2.3640 h1        1 MOL      0.004443
    122 H56         2.5860   -0.9760   -1.5150 ho        1 MOL      0.376248
    123 H57         2.6840   -3.7240   -3.3840 hc        1 MOL      0.147171
    124 H58         1.6060   -2.6160   -2.5100 hc        1 MOL      0.147171
    125 H59         2.5850   -1.9610   -3.7860 hc        1 MOL      0.147171
    126 N11         6.0760   -3.2780   -0.5010 n         1 MOL     -0.279370
    127 C39         7.5020   -2.8440   -0.1690 c3        1 MOL     -0.292554
    128 C40         7.6430   -1.3040   -0.2710 c         1 MOL      0.403294
    129 O19         8.3540   -0.6590    0.5160 o         1 MOL     -0.479001
    130 C41         8.4610   -3.5760   -1.0370 c3        1 MOL      0.374723
    131 C42         8.5840   -5.0790   -0.7730 c3        1 MOL     -0.309195
    132 O20         8.0890   -3.4360   -2.3920 oh        1 MOL     -0.650001
    133 H60         6.0800   -3.8900   -1.3040 hn        1 MOL      0.219188
    134 H61         7.7530   -3.1210    0.8470 h1        1 MOL      0.176859
    135 H62         9.4890   -3.2020   -1.0250 h1        1 MOL      0.066746
    136 H63         7.8580   -4.3240   -2.6810 ho        1 MOL      0.411451
    137 H64         7.5590   -5.4570   -0.7710 hc        1 MOL      0.086993
    138 H65         9.1420   -5.5740   -1.5550 hc        1 MOL      0.086993
    139 H66         9.0100   -5.1590    0.2320 hc        1 MOL      0.086993
    140 N12         6.9670   -0.6950   -1.2920 n         1 MOL     -0.076187
    141 C43         6.7870    0.7790   -1.4970 c3        1 MOL     -0.247319
    142 C44         6.1150    1.3910   -0.2790 c         1 MOL      0.494212
    143 O21         6.6900    2.3050    0.2990 o         1 MOL     -0.535712
    144 C45         6.1140    1.1370   -2.8470 c3        1 MOL     -0.059651
    145 C46         6.1680    2.6250   -3.2620 c3        1 MOL      0.238294
    146 C47         5.2990    2.8410   -4.5150 c3        1 MOL     -0.319059
    147 C48         5.4830    4.1980   -5.0520 c3        1 MOL      0.085958
    148 N13         4.9280    5.2220   -4.1600 n4        1 MOL     -0.352881
    149 H67         6.6180   -1.2510   -2.0560 hn        1 MOL      0.187467
    150 H68         7.7960    1.1920   -1.5540 h1        1 MOL      0.108886
    151 H69         5.0770    0.8330   -2.7950 hc        1 MOL      0.037019
    152 H70         6.6290    0.5850   -3.6250 hc        1 MOL      0.037019
    153 H71         7.1540    3.0590   -3.4120 hc        1 MOL     -0.043423
    154 H72         5.8380    3.1420   -2.3650 hc        1 MOL     -0.043423
    155 H73         4.2410    2.6180   -4.3570 hc        1 MOL      0.124658
    156 H74         5.7380    2.1450   -5.2190 hc        1 MOL      0.124658
    157 H75         4.9860    4.3320   -6.0130 hx        1 MOL      0.095893
    158 H76         6.5360    4.4030   -5.1990 hx        1 MOL      0.095893
    159 H77         3.9450    5.0540   -4.0440 hn        1 MOL      0.323172
    160 H78         5.1880    5.0850   -3.1960 hn        1 MOL      0.323172
    161 H79         5.2180    6.1920   -4.2700 hn        1 MOL      0.323172
    162 N14         4.9050    0.9100    0.1020 n         1 MOL      0.023480
    163 C49         4.0360    1.4360    1.1460 c3        1 MOL     -0.335509
    164 C50         4.6770    1.2950    2.5550 c         1 MOL      0.518586
    165 O22         4.5050    2.2810    3.3230 o         1 MOL     -0.582318
    166 C51         2.7170    0.7910    1.0740 c3        1 MOL     -0.008432
    167 C52         2.0080    1.4730   -0.1530 c3        1 MOL     -0.170918
    168 C53         0.7370    0.6690   -0.4170 c         1 MOL      0.733177
    169 O23        -0.3880    1.2230   -0.4470 o         1 MOL     -0.705898
    170 O24         0.8630   -0.5650   -0.5900 o         1 MOL     -0.705898
    171 H80         4.5370    0.1290   -0.4270 hn        1 MOL      0.146663
    172 H81         3.8950    2.4760    0.8520 h1        1 MOL      0.097499
    173 H82         2.2220    0.8620    2.0390 hc        1 MOL      0.111637
    174 H83         2.9590   -0.2340    0.8170 hc        1 MOL      0.111637
    175 H84         2.7050    1.4810   -0.9770 hc        1 MOL      0.017717
    176 H85         1.8490    2.5390    0.0330 hc        1 MOL      0.017717
    177 N15         5.5720    0.3460    2.7710 n         1 MOL     -0.197181
    178 C54         6.4780    0.4300    3.9300 c3        1 MOL     -0.306943
    179 H86         7.1130   -0.4550    3.9580 h1        1 MOL      0.123409
    180 H87         7.0990    1.3210    3.8420 h1        1 MOL      0.123409
    181 H88         5.8910    0.4840    4.8470 h1        1 MOL      0.123409
    182 H89         5.7890   -0.3040    2.0270 hn        1 MOL      0.256786
    183 Ca1        -1.7920   -0.6540   -1.3200 Ca        1 MOL      1.744899
    184 O25        -0.3780    0.0310   -3.5230 oh        1 MOL     -0.865930
    185 H90        -0.1080   -0.4660   -4.2960 ho        1 MOL      0.394076
    186 H91        -0.9040    0.7520   -3.8750 ho        1 MOL      0.394076
    187 O26        -0.7710   -2.8970   -2.4790 oh        1 MOL     -0.865930
    188 H92        -0.2210   -3.0660   -3.2490 ho        1 MOL      0.394076
    189 H93        -1.3410   -3.6620   -2.4180 ho        1 MOL      0.394076
@<TRIPOS>BOND
     1    1    2 1   
     2    1    4 1   
     3    1    5 1   
     4    1    6 1   
     5    2    3 2   
     6    2    7 1   
     7    7    8 1   
     8    7   15 1   
     9    8    9 1   
    10    8   11 1   
    11    8   16 1   
    12    9   10 2   
    13    9   19 1   
    14   11   12 1   
    15   11   17 1   
    16   11   18 1   
    17   12   13 1   
    18   12   14 1   
    19   19   20 1   
    20   19   28 1   
    21   20   21 1   
    22   20   23 1   
    23   20   29 1   
    24   21   22 2   
    25   21   41 1   
    26   23   24 1   
    27   23   30 1   
    28   23   31 1   
    29   24   25 1   
    30   24   32 1   
    31   24   33 1   
    32   25   26 1   
    33   25   34 1   
    34   25   35 1   
    35   26   27 1   
    36   26   36 1   
    37   26   37 1   
    38   27   38 1   
    39   27   39 1   
    40   27   40 1   
    41   41   42 1   
    42   41   49 1   
    43   42   43 1   
    44   42   45 1   
    45   42   50 1   
    46   43   44 2   
    47   43   53 1   
    48   45   46 1   
    49   45   51 1   
    50   45   52 1   
    51   46   47 1   
    52   46   48 1   
    53   53   54 1   
    54   53   57 1   
    55   54   55 1   
    56   54   58 1   
    57   54   59 1   
    58   55   56 2   
    59   55   60 1   
    60   60   61 1   
    61   60   68 1   
    62   61   62 1   
    63   61   64 1   
    64   61   69 1   
    65   62   63 2   
    66   62   72 1   
    67   64   65 1   
    68   64   70 1   
    69   64   71 1   
    70   65   66 1   
    71   65   67 1   
    72   72   73 1   
    73   72   76 1   
    74   73   74 1   
    75   73   77 1   
    76   73   78 1   
    77   74   75 2   
    78   74   79 1   
    79   79   80 1   
    80   79   86 1   
    81   80   81 1   
    82   80   83 1   
    83   80   87 1   
    84   81   82 2   
    85   81   93 1   
    86   83   84 1   
    87   83   85 1   
    88   83   88 1   
    89   84   90 1   
    90   84   91 1   
    91   84   92 1   
    92   85   89 1   
    93   93   94 1   
    94   93  101 1   
    95   94   95 1   
    96   94   97 1   
    97   94  102 1   
    98   95   96 2   
    99   95  112 1   
   100   97   98 1   
   101   97   99 1   
   102   97  103 1   
   103   98  100 1   
   104   98  104 1   
   105   98  105 1   
   106   99  106 1   
   107   99  107 1   
   108   99  108 1   
   109  100  109 1   
   110  100  110 1   
   111  100  111 1   
   112  112  113 1   
   113  112  119 1   
   114  113  114 1   
   115  113  116 1   
   116  113  120 1   
   117  114  115 2   
   118  114  126 1   
   119  116  117 1   
   120  116  118 1   
   121  116  121 1   
   122  117  123 1   
   123  117  124 1   
   124  117  125 1   
   125  118  122 1   
   126  126  127 1   
   127  126  133 1   
   128  127  128 1   
   129  127  130 1   
   130  127  134 1   
   131  128  129 2   
   132  128  140 1   
   133  130  131 1   
   134  130  132 1   
   135  130  135 1   
   136  131  137 1   
   137  131  138 1   
   138  131  139 1   
   139  132  136 1   
   140  140  141 1   
   141  140  149 1   
   142  141  142 1   
   143  141  144 1   
   144  141  150 1   
   145  142  143 2   
   146  142  162 1   
   147  144  145 1   
   148  144  151 1   
   149  144  152 1   
   150  145  146 1   
   151  145  153 1   
   152  145  154 1   
   153  146  147 1   
   154  146  155 1   
   155  146  156 1   
   156  147  148 1   
   157  147  157 1   
   158  147  158 1   
   159  148  159 1   
   160  148  160 1   
   161  148  161 1   
   162  162  163 1   
   163  162  171 1   
   164  163  164 1   
   165  163  166 1   
   166  163  172 1   
   167  164  165 2   
   168  164  177 1   
   169  166  167 1   
   170  166  173 1   
   171  166  174 1   
   172  167  168 1   
   173  167  175 1   
   174  167  176 1   
   175  168  169 1   
   176  168  170 1   
   177  177  178 1   
   178  177  182 1   
   179  178  179 1   
   180  178  180 1   
   181  178  181 1   
   182  184  185 1   
   183  184  186 1   
   184  187  188 1   
   185  187  189 1   
@<TRIPOS>SUBSTRUCTURE
     1 MOL         1 TEMP              0 ****  ****    0 ROOT
