@<TRIPOS>MOLECULE
MOL
  189   185     1     0     0
SMALL
resp


@<TRIPOS>ATOM
      1 C1         -0.0090    2.8920    4.9940 c3        1 MOL     -0.325960
      2 C2         -0.5870    2.6500    3.5980 c         1 MOL      0.731931
      3 O1         -0.0230    2.9420    2.5540 o         1 MOL     -0.685443
      4 H1         -0.1650    2.0050    5.6090 hc        1 MOL      0.085216
      5 H2          1.0590    3.0950    4.9150 hc        1 MOL      0.085216
      6 H3         -0.5100    3.7440    5.4520 hc        1 MOL      0.085216
      7 N1         -1.8070    2.0970    3.5580 n         1 MOL     -0.608192
      8 C3         -2.4650    1.7580    2.2920 c3        1 MOL      0.308315
      9 C4         -3.0260    3.0250    1.5130 c         1 MOL      0.283755
     10 O2         -4.2280    3.2510    1.4060 o         1 MOL     -0.424688
     11 C5         -3.5970    0.7810    2.6110 c3        1 MOL     -0.218865
     12 C6         -4.3200    0.3150    1.3300 c         1 MOL      0.744514
     13 O3         -3.8400    0.4200    0.1660 o         1 MOL     -0.703650
     14 O4         -5.2910   -0.4720    1.5670 o         1 MOL     -0.703650
     15 H4         -2.2620    2.0150    4.4580 hn        1 MOL      0.313886
     16 H5         -1.7880    1.2090    1.6250 h1        1 MOL     -0.014164
     17 H6         -4.3420    1.1930    3.2920 hc        1 MOL      0.061015
     18 H7         -3.1230   -0.1040    3.0400 hc        1 MOL      0.061015
     19 N2         -2.1470    3.7040    0.6960 n         1 MOL     -0.235648
     20 C7         -2.2580    5.0260    0.0510 c3        1 MOL     -0.120134
     21 C8         -3.1430    4.9320   -1.2010 c         1 MOL      0.401006
     22 O5         -3.4280    5.9900   -1.8100 o         1 MOL     -0.561627
     23 C9         -0.8840    5.5860   -0.4410 c3        1 MOL      0.004231
     24 C10         0.1130    6.0980    0.6290 c3        1 MOL      0.118128
     25 C11        -0.1130    7.5660    0.9990 c3        1 MOL     -0.042447
     26 C12         0.6430    8.0130    2.2770 c3        1 MOL     -0.000805
     27 N3          2.0870    7.7690    2.2330 n4        1 MOL     -0.330415
     28 H8         -1.2120    3.3240    0.6330 hn        1 MOL      0.358544
     29 H9         -2.6120    5.7890    0.7330 h1        1 MOL      0.123520
     30 H10        -1.0130    6.4090   -1.1400 hc        1 MOL      0.030243
     31 H11        -0.4680    4.7510   -1.0020 hc        1 MOL      0.030243
     32 H12         1.0820    6.0440    0.1360 hc        1 MOL     -0.024352
     33 H13         0.0010    5.4350    1.4930 hc        1 MOL     -0.024352
     34 H14        -1.1890    7.6960    1.1050 hc        1 MOL      0.037158
     35 H15         0.2200    8.2220    0.1850 hc        1 MOL      0.037158
     36 H16         0.1760    7.4830    3.1070 hx        1 MOL      0.088446
     37 H17         0.4360    9.0750    2.3830 hx        1 MOL      0.088446
     38 H18         2.5360    8.2190    1.4490 hn        1 MOL      0.323081
     39 H19         2.5000    7.8590    3.1540 hn        1 MOL      0.323081
     40 H20         2.3980    6.8190    2.1510 hn        1 MOL      0.323081
     41 N4         -3.5960    3.7230   -1.6390 n         1 MOL     -0.080185
     42 C13        -4.6440    3.4780   -2.6810 c3        1 MOL      0.018749
     43 C14        -5.8360    2.7060   -2.2810 c         1 MOL      0.400437
     44 O6         -6.7300    2.4690   -3.0740 o         1 MOL     -0.508011
     45 C15        -3.8880    2.9970   -3.9510 c3        1 MOL     -0.152558
     46 C16        -3.0120    1.7910   -3.8180 c         1 MOL      0.763187
     47 O7         -3.0210    1.0740   -2.7500 o         1 MOL     -0.684939
     48 O8         -2.3060    1.4630   -4.8230 o         1 MOL     -0.684939
     49 H21        -3.2690    2.9140   -1.1370 hn        1 MOL      0.037304
     50 H22        -4.9990    4.4820   -2.9340 h1        1 MOL      0.090474
     51 H23        -3.2130    3.7710   -4.2940 hc        1 MOL      0.044339
     52 H24        -4.6000    2.8560   -4.7700 hc        1 MOL      0.044339
     53 N5         -5.9170    2.2310   -0.9860 n         1 MOL     -0.118550
     54 C17        -7.1860    1.8200   -0.4370 c3        1 MOL     -0.125895
     55 C18        -7.5790    0.3430   -0.7850 c         1 MOL      0.464823
     56 O9         -8.7290   -0.0500   -0.5780 o         1 MOL     -0.573157
     57 H25        -5.1480    2.2750   -0.3290 hn        1 MOL      0.026984
     58 H26        -8.0000    2.5480   -0.5160 h1        1 MOL      0.093451
     59 H27        -7.0000    1.8570    0.6350 h1        1 MOL      0.093451
     60 N6         -6.6310   -0.4350   -1.3520 n         1 MOL     -0.181787
     61 C19        -6.9210   -1.7910   -1.8620 c3        1 MOL     -0.227260
     62 C20        -6.9740   -2.9020   -0.7870 c         1 MOL      0.493305
     63 O10        -7.2560   -4.0840   -1.0520 o         1 MOL     -0.538498
     64 C21        -5.8960   -2.1860   -3.0160 c3        1 MOL     -0.083800
     65 C22        -4.4440   -2.2120   -2.5700 c         1 MOL      0.632379
     66 O11        -4.2110   -2.3140   -1.3680 o         1 MOL     -0.667903
     67 O12        -3.5020   -1.9470   -3.3750 o         1 MOL     -0.667903
     68 H28        -5.7160   -0.0080   -1.2970 hn        1 MOL      0.223985
     69 H29        -7.8990   -1.7810   -2.3530 h1        1 MOL      0.158788
     70 H30        -5.9150   -1.5450   -3.9000 hc        1 MOL      0.053269
     71 H31        -6.2770   -3.1180   -3.4220 hc        1 MOL      0.053269
     72 N7         -6.7790   -2.4770    0.4510 n         1 MOL     -0.233303
     73 C23        -6.6940   -3.2690    1.6310 c3        1 MOL     -0.102652
     74 C24        -5.4310   -4.0530    1.7770 c         1 MOL      0.551267
     75 O13        -5.4310   -5.1320    2.3200 o         1 MOL     -0.571192
     76 H32        -6.4300   -1.5440    0.6120 hn        1 MOL      0.284954
     77 H33        -7.5640   -3.9150    1.6900 h1        1 MOL      0.072124
     78 H34        -6.7580   -2.6360    2.5100 h1        1 MOL      0.072124
     79 N8         -4.2910   -3.5360    1.2920 n         1 MOL     -0.248915
     80 C25        -2.9330   -4.1310    1.4020 c3        1 MOL     -0.101850
     81 C26        -1.8380   -3.0700    1.4110 c         1 MOL      0.568769
     82 O14        -1.8970   -1.9410    0.9310 o         1 MOL     -0.508050
     83 C27        -2.5550   -5.1040    0.2870 c3        1 MOL      0.426541
     84 C28        -3.0020   -6.5540    0.4480 c3        1 MOL     -0.585371
     85 O15        -3.0690   -4.7030   -0.9520 oh        1 MOL     -0.589920
     86 H35        -4.3410   -2.6050    0.8970 hn        1 MOL      0.167087
     87 H36        -2.8540   -4.6400    2.3640 h1        1 MOL      0.084691
     88 H37        -1.4930   -5.1790    0.0590 h1        1 MOL      0.016578
     89 H38        -3.4270   -3.8270   -0.7930 ho        1 MOL      0.398560
     90 H39        -2.6260   -7.0250   -0.4560 hc        1 MOL      0.148535
     91 H40        -2.7590   -7.1480    1.3360 hc        1 MOL      0.148535
     92 H41        -4.0710   -6.4200    0.3350 hc        1 MOL      0.148535
     93 N9         -0.6850   -3.4780    1.9190 n         1 MOL     -0.666465
     94 C29         0.5340   -2.6510    2.1190 c3        1 MOL     -0.028788
     95 C30         1.6710   -3.2740    1.3560 c         1 MOL      0.537775
     96 O16         2.1080   -4.3720    1.7240 o         1 MOL     -0.555956
     97 C31         0.9240   -2.4280    3.6070 c3        1 MOL      0.273460
     98 C32        -0.2070   -1.6700    4.3290 c3        1 MOL      0.063071
     99 C33         2.2430   -1.6570    3.7250 c3        1 MOL     -0.291992
    100 C34        -0.1670   -1.6590    5.8740 c3        1 MOL     -0.298623
    101 H42        -0.7140   -4.4340    2.2450 hn        1 MOL      0.312833
    102 H43         0.3690   -1.6420    1.7380 h1        1 MOL      0.122451
    103 H44         1.0890   -3.3320    4.2000 hc        1 MOL     -0.011401
    104 H45        -1.1540   -2.1710    4.1320 hc        1 MOL      0.009375
    105 H46        -0.2780   -0.6830    3.8550 hc        1 MOL      0.009375
    106 H47         2.5200   -1.5810    4.7760 hc        1 MOL      0.032955
    107 H48         2.9920   -2.1950    3.1420 hc        1 MOL      0.032955
    108 H49         2.2380   -0.6450    3.3080 hc        1 MOL      0.032955
    109 H50        -0.2700   -2.7000    6.1880 hc        1 MOL      0.070440
    110 H51         0.7620   -1.3950    6.3740 hc        1 MOL      0.070440
    111 H52        -1.0110   -1.0720    6.2530 hc        1 MOL      0.070440
    112 N10         2.1790   -2.5320    0.3870 n         1 MOL     -0.276456
    113 C35         3.4250   -2.9760   -0.3090 c3        1 MOL     -0.177091
    114 C36         4.6690   -2.6530    0.5970 c         1 MOL      0.429323
    115 O17         4.6660   -1.9290    1.5640 o         1 MOL     -0.341250
    116 C37         3.6260   -2.2800   -1.7020 c3        1 MOL      0.161128
    117 C38         2.4030   -2.3840   -2.5050 c3        1 MOL     -0.504740
    118 O18         4.0410   -0.9200   -1.5050 oh        1 MOL     -0.280828
    119 H53         1.7210   -1.6270    0.2710 hn        1 MOL      0.320690
    120 H54         3.3040   -4.0210   -0.5780 h1        1 MOL      0.132488
    121 H55         4.4390   -2.7990   -2.2100 h1        1 MOL      0.041211
    122 H56         3.8560   -0.5090   -2.3610 ho        1 MOL      0.356092
    123 H57         2.6660   -2.1330   -3.5380 hc        1 MOL      0.146251
    124 H58         2.1630   -3.4430   -2.4430 hc        1 MOL      0.146251
    125 H59         1.6510   -1.6720   -2.1830 hc        1 MOL      0.146251
    126 N11         5.8300   -2.9620    0.0100 n         1 MOL     -0.296909
    127 C39         7.1430   -2.5170    0.3820 c3        1 MOL     -0.060222
    128 C40         7.3480   -0.9730    0.2700 c         1 MOL      0.382219
    129 O19         7.8510   -0.3760    1.2350 o         1 MOL     -0.518733
    130 C41         8.2740   -3.2500   -0.3740 c3        1 MOL      0.288135
    131 C42         8.3360   -4.7270   -0.0560 c3        1 MOL     -0.459906
    132 O20         8.0760   -3.0760   -1.7910 oh        1 MOL     -0.624474
    133 H60         5.8420   -3.7160   -0.6600 hn        1 MOL      0.245590
    134 H61         7.2530   -2.6330    1.4620 h1        1 MOL      0.108487
    135 H62         9.1830   -2.7290   -0.1000 h1        1 MOL      0.035913
    136 H63         8.8390   -3.4770   -2.2030 ho        1 MOL      0.401655
    137 H64         7.4420   -5.2760   -0.3790 hc        1 MOL      0.136585
    138 H65         9.1280   -5.1230   -0.6960 hc        1 MOL      0.136585
    139 H66         8.5630   -4.8570    0.9990 hc        1 MOL      0.136585
    140 N12         6.8440   -0.2940   -0.7110 n         1 MOL     -0.189726
    141 C43         6.8990    1.1160   -0.9750 c3        1 MOL     -0.042058
    142 C44         5.9530    1.8640   -0.0700 c         1 MOL      0.316643
    143 O21         6.2590    2.9720    0.4160 o         1 MOL     -0.529030
    144 C45         6.6500    1.4910   -2.4500 c3        1 MOL     -0.114367
    145 C46         7.5560    0.8960   -3.5000 c3        1 MOL      0.051545
    146 C47         9.0730    0.9820   -3.3270 c3        1 MOL     -0.043850
    147 C48         9.8090    0.0270   -4.1910 c3        1 MOL      0.065749
    148 N13        11.1400    0.5110   -4.5420 n4        1 MOL     -0.212821
    149 H67         6.3310   -0.9250   -1.3080 hn        1 MOL      0.107928
    150 H68         7.9210    1.4270   -0.7890 h1        1 MOL      0.109369
    151 H69         6.8070    2.5690   -2.5250 hc        1 MOL      0.049868
    152 H70         5.6270    1.1610   -2.6520 hc        1 MOL      0.049868
    153 H71         7.2820    1.3290   -4.4630 hc        1 MOL      0.003147
    154 H72         7.2940   -0.1360   -3.7360 hc        1 MOL      0.003147
    155 H73         9.3980    1.0840   -2.2940 hc        1 MOL      0.046633
    156 H74         9.2960    1.9360   -3.8030 hc        1 MOL      0.046633
    157 H75         9.3020   -0.3070   -5.0940 hx        1 MOL      0.055193
    158 H76         9.8380   -0.8740   -3.5790 hx        1 MOL      0.055193
    159 H77        10.9760    1.2490   -5.2190 hn        1 MOL      0.238388
    160 H78        11.5840    0.9980   -3.7760 hn        1 MOL      0.238388
    161 H79        11.6910   -0.2350   -4.9370 hn        1 MOL      0.238388
    162 N14         4.7830    1.3430    0.1160 n         1 MOL      0.045090
    163 C49         3.7600    1.9530    1.0540 c3        1 MOL     -0.236089
    164 C50         4.3070    1.9350    2.5020 c         1 MOL      0.466581
    165 O22         4.0590    2.8610    3.2990 o         1 MOL     -0.557102
    166 C51         2.4140    1.1570    0.9150 c3        1 MOL      0.102281
    167 C52         1.7640    1.5890   -0.3480 c3        1 MOL     -0.097216
    168 C53         0.4240    0.8400   -0.5880 c         1 MOL      0.696689
    169 O23         0.1740   -0.2340   -0.0140 o         1 MOL     -0.762482
    170 O24        -0.4520    1.2880   -1.3620 o         1 MOL     -0.762482
    171 H80         4.6470    0.4930   -0.4190 hn        1 MOL      0.038367
    172 H81         3.6450    2.9960    0.7630 h1        1 MOL      0.099011
    173 H82         1.7960    1.3590    1.7840 hc        1 MOL      0.052221
    174 H83         2.6730    0.0990    0.8470 hc        1 MOL      0.052221
    175 H84         2.4120    1.4390   -1.2080 hc        1 MOL     -0.025982
    176 H85         1.4620    2.6420   -0.3270 hc        1 MOL     -0.025982
    177 N15         5.0170    0.8160    2.8050 n         1 MOL     -0.047757
    178 C54         5.7870    0.6440    4.0990 c3        1 MOL     -0.321081
    179 H86         5.3210   -0.1390    4.6970 h1        1 MOL      0.119674
    180 H87         6.8170    0.3660    3.8760 h1        1 MOL      0.119674
    181 H88         5.7750    1.5810    4.6570 h1        1 MOL      0.119674
    182 H89         5.3250    0.2000    2.0710 hn        1 MOL      0.146412
    183 Ca1        -2.0030   -0.7250   -1.3060 Ca        1 MOL      1.795332
    184 O25        -0.6300   -0.7350   -3.8220 oh        1 MOL     -0.861718
    185 H90         0.1330   -0.6340   -4.3910 ho        1 MOL      0.399944
    186 H91        -1.3010   -0.1900   -4.2400 ho        1 MOL      0.399944
    187 O26        -0.6910   -2.8600   -1.9420 oh        1 MOL     -0.861718
    188 H92        -0.0130   -2.4860   -2.5060 ho        1 MOL      0.399944
    189 H93        -0.9730   -3.6540   -2.3890 ho        1 MOL      0.399944
@<TRIPOS>BOND
     1    1    2 1   
     2    1    4 1   
     3    1    5 1   
     4    1    6 1   
     5    2    3 2   
     6    2    7 1   
     7    7    8 1   
     8    7   15 1   
     9    8    9 1   
    10    8   11 1   
    11    8   16 1   
    12    9   10 2   
    13    9   19 1   
    14   11   12 1   
    15   11   17 1   
    16   11   18 1   
    17   12   13 1   
    18   12   14 1   
    19   19   20 1   
    20   19   28 1   
    21   20   21 1   
    22   20   23 1   
    23   20   29 1   
    24   21   22 2   
    25   21   41 1   
    26   23   24 1   
    27   23   30 1   
    28   23   31 1   
    29   24   25 1   
    30   24   32 1   
    31   24   33 1   
    32   25   26 1   
    33   25   34 1   
    34   25   35 1   
    35   26   27 1   
    36   26   36 1   
    37   26   37 1   
    38   27   38 1   
    39   27   39 1   
    40   27   40 1   
    41   41   42 1   
    42   41   49 1   
    43   42   43 1   
    44   42   45 1   
    45   42   50 1   
    46   43   44 2   
    47   43   53 1   
    48   45   46 1   
    49   45   51 1   
    50   45   52 1   
    51   46   47 1   
    52   46   48 1   
    53   53   54 1   
    54   53   57 1   
    55   54   55 1   
    56   54   58 1   
    57   54   59 1   
    58   55   56 2   
    59   55   60 1   
    60   60   61 1   
    61   60   68 1   
    62   61   62 1   
    63   61   64 1   
    64   61   69 1   
    65   62   63 2   
    66   62   72 1   
    67   64   65 1   
    68   64   70 1   
    69   64   71 1   
    70   65   66 1   
    71   65   67 1   
    72   72   73 1   
    73   72   76 1   
    74   73   74 1   
    75   73   77 1   
    76   73   78 1   
    77   74   75 2   
    78   74   79 1   
    79   79   80 1   
    80   79   86 1   
    81   80   81 1   
    82   80   83 1   
    83   80   87 1   
    84   81   82 2   
    85   81   93 1   
    86   83   84 1   
    87   83   85 1   
    88   83   88 1   
    89   84   90 1   
    90   84   91 1   
    91   84   92 1   
    92   85   89 1   
    93   93   94 1   
    94   93  101 1   
    95   94   95 1   
    96   94   97 1   
    97   94  102 1   
    98   95   96 2   
    99   95  112 1   
   100   97   98 1   
   101   97   99 1   
   102   97  103 1   
   103   98  100 1   
   104   98  104 1   
   105   98  105 1   
   106   99  106 1   
   107   99  107 1   
   108   99  108 1   
   109  100  109 1   
   110  100  110 1   
   111  100  111 1   
   112  112  113 1   
   113  112  119 1   
   114  113  114 1   
   115  113  116 1   
   116  113  120 1   
   117  114  115 2   
   118  114  126 1   
   119  116  117 1   
   120  116  118 1   
   121  116  121 1   
   122  117  123 1   
   123  117  124 1   
   124  117  125 1   
   125  118  122 1   
   126  126  127 1   
   127  126  133 1   
   128  127  128 1   
   129  127  130 1   
   130  127  134 1   
   131  128  129 2   
   132  128  140 1   
   133  130  131 1   
   134  130  132 1   
   135  130  135 1   
   136  131  137 1   
   137  131  138 1   
   138  131  139 1   
   139  132  136 1   
   140  140  141 1   
   141  140  149 1   
   142  141  142 1   
   143  141  144 1   
   144  141  150 1   
   145  142  143 2   
   146  142  162 1   
   147  144  145 1   
   148  144  151 1   
   149  144  152 1   
   150  145  146 1   
   151  145  153 1   
   152  145  154 1   
   153  146  147 1   
   154  146  155 1   
   155  146  156 1   
   156  147  148 1   
   157  147  157 1   
   158  147  158 1   
   159  148  159 1   
   160  148  160 1   
   161  148  161 1   
   162  162  163 1   
   163  162  171 1   
   164  163  164 1   
   165  163  166 1   
   166  163  172 1   
   167  164  165 2   
   168  164  177 1   
   169  166  167 1   
   170  166  173 1   
   171  166  174 1   
   172  167  168 1   
   173  167  175 1   
   174  167  176 1   
   175  168  169 1   
   176  168  170 1   
   177  177  178 1   
   178  177  182 1   
   179  178  179 1   
   180  178  180 1   
   181  178  181 1   
   182  184  185 1   
   183  184  186 1   
   184  187  188 1   
   185  187  189 1   
@<TRIPOS>SUBSTRUCTURE
     1 MOL         1 TEMP              0 ****  ****    0 ROOT
