@<TRIPOS>MOLECULE
MOL
  189   185     1     0     0
SMALL
resp


@<TRIPOS>ATOM
      1 C1         -0.6060    1.2840    6.3870 c3        1 MOL     -0.242575
      2 C2         -0.7090    1.0390    4.9220 c         1 MOL      0.832011
      3 O1          0.2990    1.2050    4.1790 o         1 MOL     -0.683216
      4 H1         -0.6530    0.3330    6.9180 hc        1 MOL      0.062514
      5 H2          0.3410    1.7770    6.6080 hc        1 MOL      0.062514
      6 H3         -1.4310    1.9200    6.7090 hc        1 MOL      0.062514
      7 N1         -1.9150    0.7440    4.3910 n         1 MOL     -0.730078
      8 C3         -2.2710    0.9280    2.9850 c3        1 MOL      0.130063
      9 C4         -2.3310    2.4540    2.6870 c         1 MOL      0.573788
     10 O2         -3.0820    3.1820    3.2940 o         1 MOL     -0.554869
     11 C5         -3.5620    0.1250    2.7590 c3        1 MOL     -0.180546
     12 C6         -4.0910    0.1910    1.3470 c         1 MOL      0.818587
     13 O3         -5.1950   -0.3410    1.1570 o         1 MOL     -0.668436
     14 O4         -3.3910    0.8480    0.5740 o         1 MOL     -0.668436
     15 H4         -2.7020    0.7460    5.0160 hn        1 MOL      0.348117
     16 H5         -1.4800    0.4920    2.3820 h1        1 MOL      0.007302
     17 H6         -4.3390    0.5270    3.4180 hc        1 MOL      0.044183
     18 H7         -3.4580   -0.9410    2.9350 hc        1 MOL      0.044183
     19 N2         -1.6040    2.9590    1.6680 n         1 MOL     -0.044690
     20 C7         -1.2490    4.3320    1.6000 c3        1 MOL     -0.442555
     21 C8         -2.1390    5.0790    0.6430 c         1 MOL      0.584770
     22 O5         -2.4670    6.2820    0.8530 o         1 MOL     -0.606448
     23 C9          0.2870    4.4680    1.3190 c3        1 MOL      0.111068
     24 C10         0.8240    5.8700    1.5770 c3        1 MOL     -0.079037
     25 C11         2.2990    5.8550    1.1690 c3        1 MOL     -0.030382
     26 C12         3.0100    7.1170    1.5810 c3        1 MOL      0.169586
     27 N3          4.4110    7.1360    1.1070 n4        1 MOL     -0.494509
     28 H8         -1.1770    2.2640    1.0640 hn        1 MOL      0.042584
     29 H9         -1.4470    4.8310    2.5500 h1        1 MOL      0.159908
     30 H10         0.3600    4.2340    0.2570 hc        1 MOL      0.067710
     31 H11         0.8280    3.7340    1.9250 hc        1 MOL      0.067710
     32 H12         0.8000    6.0930    2.6470 hc        1 MOL      0.042847
     33 H13         0.3710    6.6730    0.9960 hc        1 MOL      0.042847
     34 H14         2.1780    5.8400    0.0930 hc        1 MOL      0.007156
     35 H15         2.8170    4.9530    1.5070 hc        1 MOL      0.007156
     36 H16         2.9380    7.2230    2.6690 hx        1 MOL      0.056628
     37 H17         2.5030    8.0320    1.2810 hx        1 MOL      0.056628
     38 H18         4.3590    6.9900    0.1020 hn        1 MOL      0.354465
     39 H19         4.8560    7.9890    1.3900 hn        1 MOL      0.354465
     40 H20         4.9470    6.3700    1.4930 hn        1 MOL      0.354465
     41 N4         -2.7220    4.4130   -0.3260 n         1 MOL     -0.276412
     42 C13        -3.6710    4.9680   -1.2900 c3        1 MOL      0.058707
     43 C14        -5.0220    4.3090   -1.0040 c         1 MOL      0.394983
     44 O6         -6.0970    4.8090   -1.5080 o         1 MOL     -0.530336
     45 C15        -3.1570    4.6440   -2.6940 c3        1 MOL     -0.144898
     46 C16        -2.7480    3.2080   -2.9710 c         1 MOL      0.703556
     47 O7         -2.5760    2.8840   -4.1600 o         1 MOL     -0.625827
     48 O8         -2.6290    2.3200   -2.0790 o         1 MOL     -0.625827
     49 H21        -2.6380    3.4120   -0.4400 hn        1 MOL      0.164205
     50 H22        -3.7610    6.0520   -1.2200 h1        1 MOL      0.077576
     51 H23        -2.2410    5.2170   -2.8420 hc        1 MOL      0.038550
     52 H24        -3.9060    5.0150   -3.3860 hc        1 MOL      0.038550
     53 N5         -5.1060    3.2110   -0.2400 n         1 MOL     -0.069224
     54 C17        -6.4290    2.7280    0.0940 c3        1 MOL     -0.232873
     55 C18        -7.0280    1.8930   -0.9900 c         1 MOL      0.743448
     56 O9         -8.0490    2.2460   -1.5500 o         1 MOL     -0.568240
     57 H25        -4.2840    2.7160    0.0540 hn        1 MOL      0.125210
     58 H26        -7.1850    3.5100    0.1950 h1        1 MOL      0.090938
     59 H27        -6.3600    2.1880    1.0350 h1        1 MOL      0.090938
     60 N6         -6.4620    0.6680   -1.2360 n         1 MOL     -0.439055
     61 C19        -6.9780   -0.2630   -2.1830 c3        1 MOL      0.044797
     62 C20        -7.4040   -1.6550   -1.5920 c         1 MOL      0.504281
     63 O10        -8.0810   -2.3790   -2.2960 o         1 MOL     -0.567903
     64 C21        -5.9560   -0.3280   -3.2850 c3        1 MOL     -0.081047
     65 C22        -4.5290   -0.5890   -2.8430 c         1 MOL      0.680333
     66 O11        -4.3790   -1.2180   -1.7930 o         1 MOL     -0.736701
     67 O12        -3.5570   -0.2420   -3.5290 o         1 MOL     -0.736701
     68 H28        -5.7280    0.3540   -0.6230 hn        1 MOL      0.032974
     69 H29        -7.9170    0.1050   -2.5860 h1        1 MOL      0.069381
     70 H30        -6.0370    0.5940   -3.8650 hc        1 MOL      0.045357
     71 H31        -6.2800   -1.0120   -4.0710 hc        1 MOL      0.045357
     72 N7         -6.9310   -2.0920   -0.4290 n         1 MOL     -0.332555
     73 C23        -7.0630   -3.4840    0.0600 c3        1 MOL     -0.044491
     74 C24        -5.7170   -4.2490    0.3020 c         1 MOL      0.417453
     75 O13        -5.5960   -5.1000    1.1380 o         1 MOL     -0.544976
     76 H32        -6.2110   -1.5440    0.0140 hn        1 MOL      0.293886
     77 H33        -7.8020   -4.0310   -0.5270 h1        1 MOL      0.084189
     78 H34        -7.5940   -3.3440    1.0030 h1        1 MOL      0.084189
     79 N8         -4.5440   -3.7170   -0.1510 n         1 MOL     -0.198606
     80 C25        -3.2720   -4.3680    0.0980 c3        1 MOL     -0.065726
     81 C26        -2.1180   -3.3410    0.5030 c         1 MOL      0.660729
     82 O14        -2.1340   -2.1550    0.0780 o         1 MOL     -0.661532
     83 C27        -2.9390   -5.2740   -1.0710 c3        1 MOL      0.398674
     84 C28        -3.6000   -6.6560   -1.0340 c3        1 MOL     -0.446678
     85 O15        -3.1270   -4.6330   -2.2680 oh        1 MOL     -0.628861
     86 H35        -4.6170   -2.8390   -0.6260 hn        1 MOL      0.201842
     87 H36        -3.2480   -5.0770    0.9200 h1        1 MOL      0.054395
     88 H37        -1.8610   -5.4640   -1.0160 h1        1 MOL      0.009872
     89 H38        -3.9690   -4.9110   -2.6160 ho        1 MOL      0.401954
     90 H39        -2.9840   -7.3940   -1.5500 hc        1 MOL      0.118278
     91 H40        -3.8250   -6.9800   -0.0180 hc        1 MOL      0.118278
     92 H41        -4.6150   -6.5480   -1.4300 hc        1 MOL      0.118278
     93 N9         -1.1420   -3.9510    1.1130 n         1 MOL     -0.555958
     94 C29         0.1550   -3.3890    1.4890 c3        1 MOL      0.129584
     95 C30         1.2530   -3.9900    0.6620 c         1 MOL      0.418894
     96 O16         1.5510   -5.1900    0.5650 o         1 MOL     -0.544799
     97 C31         0.3450   -3.4690    3.0400 c3        1 MOL     -0.083097
     98 C32        -0.6720   -2.6180    3.8210 c3        1 MOL      0.230137
     99 C33         1.7590   -2.9790    3.5050 c3        1 MOL     -0.481226
    100 C34        -0.8130   -3.0260    5.2840 c3        1 MOL     -0.130828
    101 H42        -1.2940   -4.8780    1.4870 hn        1 MOL      0.295140
    102 H43         0.1260   -2.3010    1.3930 h1        1 MOL      0.085642
    103 H44         0.1680   -4.5020    3.3460 hc        1 MOL      0.049953
    104 H45        -1.6480   -2.5860    3.3360 hc        1 MOL     -0.012955
    105 H46        -0.3500   -1.5720    3.7830 hc        1 MOL     -0.012955
    106 H47         1.8350   -2.9410    4.5910 hc        1 MOL      0.130040
    107 H48         2.4900   -3.6280    3.0370 hc        1 MOL      0.130040
    108 H49         1.8950   -1.9320    3.2500 hc        1 MOL      0.130040
    109 H50         0.0060   -2.7340    5.9460 hc        1 MOL      0.021053
    110 H51        -1.6940   -2.4680    5.6110 hc        1 MOL      0.021053
    111 H52        -1.1280   -4.0700    5.3800 hc        1 MOL      0.021053
    112 N10         1.8450   -3.0160   -0.0210 n         1 MOL      0.012481
    113 C35         2.9100   -3.2350   -1.0640 c3        1 MOL     -0.320777
    114 C36         4.3360   -2.8900   -0.5340 c         1 MOL      0.645183
    115 O17         4.4270   -2.2980    0.5440 o         1 MOL     -0.491145
    116 C37         2.6210   -2.4760   -2.4340 c3        1 MOL      0.353781
    117 C38         1.5020   -3.2570   -3.1390 c3        1 MOL     -0.398194
    118 O18         2.3090   -1.0700   -2.2030 oh        1 MOL     -0.634296
    119 H53         1.4870   -2.0960    0.1870 hn        1 MOL      0.115936
    120 H54         2.9850   -4.3150   -1.1900 h1        1 MOL      0.114281
    121 H55         3.4270   -2.4510   -3.1640 h1        1 MOL      0.028331
    122 H56         1.5730   -0.9950   -1.5940 ho        1 MOL      0.414677
    123 H57         1.9290   -4.2030   -3.4920 hc        1 MOL      0.109185
    124 H58         0.6650   -3.3150   -2.4510 hc        1 MOL      0.109185
    125 H59         1.1240   -2.7470   -4.0220 hc        1 MOL      0.109185
    126 N11         5.4030   -3.1550   -1.2300 n         1 MOL     -0.521888
    127 C39         6.7200   -3.0320   -0.5120 c3        1 MOL     -0.159318
    128 C40         7.1170   -1.5900   -0.0620 c         1 MOL      0.253761
    129 O19         7.7890   -1.4420    0.9950 o         1 MOL     -0.471958
    130 C41         7.8900   -3.5170   -1.3760 c3        1 MOL      0.426446
    131 C42         7.8630   -5.0460   -1.5390 c3        1 MOL     -0.396299
    132 O20         8.0090   -2.8730   -2.6460 oh        1 MOL     -0.587746
    133 H60         5.3330   -3.7580   -2.0420 hn        1 MOL      0.336714
    134 H61         6.6130   -3.6500    0.3820 h1        1 MOL      0.172083
    135 H62         8.8510   -3.3420   -0.8890 h1        1 MOL      0.017235
    136 H63         8.7970   -2.3270   -2.5030 ho        1 MOL      0.366988
    137 H64         6.9210   -5.3720   -1.9630 hc        1 MOL      0.109343
    138 H65         8.5380   -5.3220   -2.3470 hc        1 MOL      0.109343
    139 H66         8.1210   -5.5620   -0.6170 hc        1 MOL      0.109343
    140 N12         6.6290   -0.5590   -0.7660 n         1 MOL     -0.229474
    141 C43         6.8010    0.8760   -0.3690 c3        1 MOL     -0.005891
    142 C44         5.8950    1.3460    0.7660 c         1 MOL      0.443313
    143 O21         6.1360    2.3660    1.3660 o         1 MOL     -0.561370
    144 C45         6.7110    1.7390   -1.6150 c3        1 MOL     -0.313908
    145 C46         7.9220    1.7410   -2.5580 c3        1 MOL      0.284136
    146 C47         7.7040    2.6720   -3.7380 c3        1 MOL     -0.154878
    147 C48         8.9700    2.7790   -4.6080 c3        1 MOL      0.093728
    148 N13         8.9320    3.8790   -5.5720 n4        1 MOL     -0.198741
    149 H67         6.0440   -0.8170   -1.5520 hn        1 MOL      0.249419
    150 H68         7.7650    1.0380    0.1210 h1        1 MOL      0.118207
    151 H69         6.4590    2.7810   -1.3950 hc        1 MOL      0.086797
    152 H70         5.9650    1.2460   -2.2470 hc        1 MOL      0.086797
    153 H71         8.1600    0.7340   -2.9150 hc        1 MOL     -0.037888
    154 H72         8.8050    2.1000   -2.0250 hc        1 MOL     -0.037888
    155 H73         7.4190    3.6360   -3.3140 hc        1 MOL      0.051602
    156 H74         6.9580    2.2690   -4.4200 hc        1 MOL      0.051602
    157 H75         9.0990    1.7800   -5.0190 hx        1 MOL      0.055501
    158 H76         9.8350    2.9470   -3.9670 hx        1 MOL      0.055501
    159 H77         8.1480    3.8200   -6.2010 hn        1 MOL      0.228697
    160 H78         8.7570    4.7650   -5.1050 hn        1 MOL      0.228697
    161 H79         9.7570    3.8730   -6.1580 hn        1 MOL      0.228697
    162 N14         4.8370    0.6470    1.0200 n         1 MOL     -0.197485
    163 C49         3.8310    0.7620    2.1560 c3        1 MOL     -0.140119
    164 C50         4.2840   -0.0860    3.4150 c         1 MOL      0.438148
    165 O22         4.2300    0.3940    4.5950 o         1 MOL     -0.545243
    166 C51         2.4340    0.4390    1.6880 c3        1 MOL      0.587383
    167 C52         2.1110    1.1350    0.3560 c3        1 MOL     -0.058405
    168 C53         0.6820    0.7690   -0.0830 c         1 MOL      0.730066
    169 O23         0.3660   -0.4470   -0.1760 o         1 MOL     -0.719045
    170 O24        -0.2020    1.5790   -0.4390 o         1 MOL     -0.719045
    171 H80         4.7320   -0.0330    0.2800 hn        1 MOL      0.224574
    172 H81         3.7210    1.8150    2.4240 h1        1 MOL      0.070859
    173 H82         1.7100    0.7430    2.4410 hc        1 MOL     -0.102132
    174 H83         2.3930   -0.6470    1.5720 hc        1 MOL     -0.102132
    175 H84         2.8250    0.8220   -0.3990 hc        1 MOL     -0.086629
    176 H85         2.2290    2.2030    0.5410 hc        1 MOL     -0.086629
    177 N15         4.7850   -1.2700    3.2000 n         1 MOL     -0.154767
    178 C54         5.2020   -2.1630    4.2680 c3        1 MOL     -0.285622
    179 H86         4.5940   -3.0670    4.2420 h1        1 MOL      0.109112
    180 H87         6.2510   -2.4260    4.1340 h1        1 MOL      0.109112
    181 H88         5.0720   -1.6650    5.2290 h1        1 MOL      0.109112
    182 H89         4.8630   -1.7390    2.3130 hn        1 MOL      0.233287
    183 Ca1        -2.0120   -0.0520   -1.4030 Ca        1 MOL      1.776075
    184 O25        -1.6830   -2.2840   -2.8240 oh        1 MOL     -0.866667
    185 H90        -2.1890   -2.0060   -3.5920 ho        1 MOL      0.413713
    186 H91        -2.1560   -3.0340   -2.4700 ho        1 MOL      0.413713
    187 O26        -0.3500    0.3520   -3.5100 oh        1 MOL     -0.866667
    188 H92        -0.8160    0.8120   -4.2140 ho        1 MOL      0.413713
    189 H93         0.2730   -0.2200   -3.9700 ho        1 MOL      0.413713
@<TRIPOS>BOND
     1    1    2 1   
     2    1    4 1   
     3    1    5 1   
     4    1    6 1   
     5    2    3 2   
     6    2    7 1   
     7    7    8 1   
     8    7   15 1   
     9    8    9 1   
    10    8   11 1   
    11    8   16 1   
    12    9   10 2   
    13    9   19 1   
    14   11   12 1   
    15   11   17 1   
    16   11   18 1   
    17   12   13 1   
    18   12   14 1   
    19   19   20 1   
    20   19   28 1   
    21   20   21 1   
    22   20   23 1   
    23   20   29 1   
    24   21   22 2   
    25   21   41 1   
    26   23   24 1   
    27   23   30 1   
    28   23   31 1   
    29   24   25 1   
    30   24   32 1   
    31   24   33 1   
    32   25   26 1   
    33   25   34 1   
    34   25   35 1   
    35   26   27 1   
    36   26   36 1   
    37   26   37 1   
    38   27   38 1   
    39   27   39 1   
    40   27   40 1   
    41   41   42 1   
    42   41   49 1   
    43   42   43 1   
    44   42   45 1   
    45   42   50 1   
    46   43   44 2   
    47   43   53 1   
    48   45   46 1   
    49   45   51 1   
    50   45   52 1   
    51   46   47 1   
    52   46   48 1   
    53   53   54 1   
    54   53   57 1   
    55   54   55 1   
    56   54   58 1   
    57   54   59 1   
    58   55   56 2   
    59   55   60 1   
    60   60   61 1   
    61   60   68 1   
    62   61   62 1   
    63   61   64 1   
    64   61   69 1   
    65   62   63 2   
    66   62   72 1   
    67   64   65 1   
    68   64   70 1   
    69   64   71 1   
    70   65   66 1   
    71   65   67 1   
    72   72   73 1   
    73   72   76 1   
    74   73   74 1   
    75   73   77 1   
    76   73   78 1   
    77   74   75 2   
    78   74   79 1   
    79   79   80 1   
    80   79   86 1   
    81   80   81 1   
    82   80   83 1   
    83   80   87 1   
    84   81   82 2   
    85   81   93 1   
    86   83   84 1   
    87   83   85 1   
    88   83   88 1   
    89   84   90 1   
    90   84   91 1   
    91   84   92 1   
    92   85   89 1   
    93   93   94 1   
    94   93  101 1   
    95   94   95 1   
    96   94   97 1   
    97   94  102 1   
    98   95   96 2   
    99   95  112 1   
   100   97   98 1   
   101   97   99 1   
   102   97  103 1   
   103   98  100 1   
   104   98  104 1   
   105   98  105 1   
   106   99  106 1   
   107   99  107 1   
   108   99  108 1   
   109  100  109 1   
   110  100  110 1   
   111  100  111 1   
   112  112  113 1   
   113  112  119 1   
   114  113  114 1   
   115  113  116 1   
   116  113  120 1   
   117  114  115 2   
   118  114  126 1   
   119  116  117 1   
   120  116  118 1   
   121  116  121 1   
   122  117  123 1   
   123  117  124 1   
   124  117  125 1   
   125  118  122 1   
   126  126  127 1   
   127  126  133 1   
   128  127  128 1   
   129  127  130 1   
   130  127  134 1   
   131  128  129 2   
   132  128  140 1   
   133  130  131 1   
   134  130  132 1   
   135  130  135 1   
   136  131  137 1   
   137  131  138 1   
   138  131  139 1   
   139  132  136 1   
   140  140  141 1   
   141  140  149 1   
   142  141  142 1   
   143  141  144 1   
   144  141  150 1   
   145  142  143 2   
   146  142  162 1   
   147  144  145 1   
   148  144  151 1   
   149  144  152 1   
   150  145  146 1   
   151  145  153 1   
   152  145  154 1   
   153  146  147 1   
   154  146  155 1   
   155  146  156 1   
   156  147  148 1   
   157  147  157 1   
   158  147  158 1   
   159  148  159 1   
   160  148  160 1   
   161  148  161 1   
   162  162  163 1   
   163  162  171 1   
   164  163  164 1   
   165  163  166 1   
   166  163  172 1   
   167  164  165 2   
   168  164  177 1   
   169  166  167 1   
   170  166  173 1   
   171  166  174 1   
   172  167  168 1   
   173  167  175 1   
   174  167  176 1   
   175  168  169 1   
   176  168  170 1   
   177  177  178 1   
   178  177  182 1   
   179  178  179 1   
   180  178  180 1   
   181  178  181 1   
   182  184  185 1   
   183  184  186 1   
   184  187  188 1   
   185  187  189 1   
@<TRIPOS>SUBSTRUCTURE
     1 MOL         1 TEMP              0 ****  ****    0 ROOT
