@<TRIPOS>MOLECULE
MOL
  176   174     1     0     0
SMALL
resp


@<TRIPOS>ATOM
      1 C1          0.3860    4.7820    6.3940 c3        1 MOL     -0.400596
      2 C2          0.4470    4.0470    5.1030 c         1 MOL      0.755593
      3 O1          1.5090    3.8070    4.5430 o         1 MOL     -0.570948
      4 H1         -0.4650    4.4250    6.9750 hc        1 MOL      0.106389
      5 H2          1.3050    4.6100    6.9540 hc        1 MOL      0.106389
      6 H3          0.2710    5.8490    6.2000 hc        1 MOL      0.106389
      7 N1         -0.6950    3.7190    4.4430 n         1 MOL     -0.638442
      8 C3         -0.7190    3.0620    3.1130 c3        1 MOL      0.003921
      9 C4         -0.8210    4.0920    1.9840 c         1 MOL      0.770596
     10 O2         -1.5950    5.0680    2.0410 o         1 MOL     -0.600539
     11 C5         -1.8340    1.9570    3.0820 c3        1 MOL      0.026363
     12 C6         -1.7970    1.1450    1.7910 c         1 MOL      0.796687
     13 O3         -2.7810    0.5480    1.3200 o         1 MOL     -0.827757
     14 O4         -0.7040    1.0740    1.1730 o         1 MOL     -0.827757
     15 H4         -1.6040    3.7820    4.8840 hn        1 MOL      0.311311
     16 H5          0.1590    2.4250    3.0000 h1        1 MOL      0.068869
     17 H6         -2.8840    2.2400    3.1560 hc        1 MOL      0.005532
     18 H7         -1.7620    1.2970    3.9380 hc        1 MOL      0.005532
     19 N2         -0.2360    3.9290    0.8050 n         1 MOL     -0.642102
     20 C7         -0.0570    4.9760   -0.2350 c3        1 MOL      0.122302
     21 C8         -1.2900    5.2690   -1.0400 c         1 MOL      0.415781
     22 O5         -1.4400    6.3690   -1.5030 o         1 MOL     -0.556446
     23 C9          1.1360    4.5970   -1.0300 c3        1 MOL      0.028341
     24 C10         1.6500    5.4930   -2.1730 c3        1 MOL     -0.045665
     25 C11         3.0270    5.4220   -2.5250 c3        1 MOL      0.240893
     26 C12         3.3440    6.1760   -3.7960 c3        1 MOL     -0.042735
     27 N3          4.7900    6.3020   -4.0160 n4        1 MOL     -0.354931
     28 H8         -0.0080    2.9790    0.5490 hn        1 MOL      0.307625
     29 H9          0.2150    5.8970    0.2770 h1        1 MOL      0.086509
     30 H10         0.8910    3.6490   -1.5120 hc        1 MOL      0.030219
     31 H11         1.9870    4.4690   -0.3600 hc        1 MOL      0.030219
     32 H12         1.3940    6.4850   -1.7980 hc        1 MOL     -0.007625
     33 H13         1.0930    5.4310   -3.1060 hc        1 MOL     -0.007625
     34 H14         3.3250    4.3720   -2.5920 hc        1 MOL     -0.029756
     35 H15         3.5650    5.8560   -1.6800 hc        1 MOL     -0.029756
     36 H16         2.8840    7.1640   -3.7030 hx        1 MOL      0.093241
     37 H17         2.9120    5.5680   -4.5870 hx        1 MOL      0.093241
     38 H18         5.2660    6.9270   -3.3850 hn        1 MOL      0.328595
     39 H19         5.3050    5.4360   -4.1050 hn        1 MOL      0.328595
     40 H20         4.8860    6.7890   -4.8900 hn        1 MOL      0.328595
     41 N4         -2.2390    4.2970   -1.0930 n         1 MOL     -0.078379
     42 C13        -3.6090    4.3640   -1.6520 c3        1 MOL     -0.067972
     43 C14        -4.7300    3.8180   -0.6470 c         1 MOL      0.354259
     44 O6         -5.9130    3.9350   -0.9670 o         1 MOL     -0.503446
     45 C15        -3.6920    3.6180   -3.0450 c3        1 MOL     -0.175856
     46 C16        -3.0800    2.2140   -3.0780 c         1 MOL      0.583941
     47 O7         -3.1290    1.5590   -1.9810 o         1 MOL     -0.660422
     48 O8         -2.5820    1.7380   -4.1610 o         1 MOL     -0.660422
     49 H21        -1.8850    3.4360   -0.7170 hn        1 MOL      0.113134
     50 H22        -3.9220    5.4030   -1.7820 h1        1 MOL      0.116795
     51 H23        -3.2090    4.2830   -3.7550 hc        1 MOL      0.069558
     52 H24        -4.7100    3.4820   -3.4100 hc        1 MOL      0.069558
     53 N5         -4.2910    3.3650    0.5190 n         1 MOL      0.036877
     54 C17        -5.3060    2.8910    1.5160 c3        1 MOL     -0.271934
     55 C18        -6.0240    1.5880    1.2420 c         1 MOL      0.618776
     56 O9         -6.9660    1.1920    1.9150 o         1 MOL     -0.580541
     57 H25        -3.4060    3.6680    0.9120 hn        1 MOL      0.075253
     58 H26        -6.0000    3.7300    1.5670 h1        1 MOL      0.108661
     59 H27        -4.6860    2.8300    2.4170 h1        1 MOL      0.108661
     60 N6         -5.5740    0.8140    0.2000 n         1 MOL     -0.167722
     61 C19        -6.4610   -0.1390   -0.5260 c3        1 MOL     -0.023011
     62 C20        -6.7640   -1.4980    0.1560 c         1 MOL      0.413659
     63 O10        -7.4750   -2.3580   -0.3230 o         1 MOL     -0.501655
     64 C21        -5.9990   -0.2600   -2.0200 c3        1 MOL     -0.404750
     65 C22        -4.9410   -1.2820   -2.2590 c         1 MOL      0.816762
     66 N7         -4.8860   -1.8560   -3.4600 n         1 MOL     -0.740412
     67 O11        -4.1470   -1.5700   -1.3310 o         1 MOL     -0.592364
     68 H28        -4.6450    1.0490   -0.1150 hn        1 MOL      0.024279
     69 H29        -7.4320    0.3650   -0.4890 h1        1 MOL      0.118616
     70 H30        -5.5130    0.6860   -2.2720 hc        1 MOL      0.144260
     71 H31        -6.8600   -0.4470   -2.6530 hc        1 MOL      0.144260
     72 H32        -5.5290   -1.6630   -4.2140 hn        1 MOL      0.346326
     73 H33        -4.1430   -2.5300   -3.5430 hn        1 MOL      0.346326
     74 N8         -6.2070   -1.6490    1.3860 n         1 MOL     -0.193869
     75 C23        -6.3190   -2.8160    2.3090 c3        1 MOL     -0.143327
     76 C24        -5.0260   -3.6420    2.5280 c         1 MOL      0.487675
     77 O12        -5.0960   -4.6510    3.3360 o         1 MOL     -0.534115
     78 H34        -5.6840   -0.8280    1.6490 hn        1 MOL      0.204344
     79 H35        -7.0220   -3.4420    1.7640 h1        1 MOL      0.108663
     80 H36        -6.7930   -2.5540    3.2590 h1        1 MOL      0.108663
     81 N9         -3.9550   -3.2860    1.7240 n         1 MOL     -0.400221
     82 C25        -2.7290   -4.1020    1.6810 c3        1 MOL      0.107080
     83 C26        -1.4180   -3.2640    1.2960 c         1 MOL      0.487926
     84 O13        -1.5220   -2.3060    0.5410 o         1 MOL     -0.649297
     85 C27        -2.8170   -5.2650    0.6740 c3        1 MOL     -0.119414
     86 C28        -3.1130   -4.9320   -0.7620 ca        1 MOL      0.103184
     87 C29        -4.4430   -5.0180   -1.2210 ca        1 MOL     -0.202434
     88 C30        -2.0300   -4.7190   -1.6470 ca        1 MOL     -0.202434
     89 C31        -4.7450   -4.9800   -2.6190 ca        1 MOL     -0.202913
     90 C32        -2.3310   -4.5390   -3.0210 ca        1 MOL     -0.202913
     91 C33        -3.6730   -4.7560   -3.4460 ca        1 MOL      0.182348
     92 O14        -4.0810   -4.4270   -4.7400 oh        1 MOL     -0.440406
     93 H37        -4.2400   -2.6220    1.0220 hn        1 MOL      0.299789
     94 H38        -2.5830   -4.5060    2.6840 h1        1 MOL      0.058375
     95 H39        -3.6160   -5.8440    1.1360 hc        1 MOL      0.056951
     96 H40        -1.9190   -5.8710    0.7570 hc        1 MOL      0.056951
     97 H41        -5.2380   -5.3490   -0.5580 ha        1 MOL      0.169558
     98 H42        -0.9990   -4.7360   -1.3210 ha        1 MOL      0.169558
     99 H43        -5.7510   -5.1390   -3.0010 ha        1 MOL      0.159323
    100 H44        -1.5950   -4.3470   -3.7830 ha        1 MOL      0.159323
    101 H45        -3.3060   -4.3600   -5.2940 ho        1 MOL      0.326771
    102 N10        -0.2710   -3.5240    1.8360 n         1 MOL     -0.408857
    103 C34         1.0200   -2.8060    1.8280 c3        1 MOL      0.057742
    104 C35         2.1100   -3.7300    1.1960 c         1 MOL      0.509608
    105 O15         2.2070   -4.9000    1.5750 o         1 MOL     -0.549591
    106 C36         1.4530   -2.3100    3.2730 c3        1 MOL     -0.066283
    107 C37         0.5170   -1.2240    3.7110 c3        1 MOL      0.158482
    108 C38         3.0320   -1.9600    3.2630 c3        1 MOL     -0.017685
    109 C39         0.6750   -0.9340    5.2380 c3        1 MOL     -0.464840
    110 H46        -0.3690   -4.3180    2.4510 hn        1 MOL      0.273883
    111 H47         0.9640   -1.8920    1.2320 h1        1 MOL      0.058080
    112 H48         1.3930   -3.1540    3.9650 hc        1 MOL      0.027520
    113 H49        -0.5270   -1.4730    3.5120 hc        1 MOL      0.037923
    114 H50         0.7560   -0.3340    3.1120 hc        1 MOL      0.037923
    115 H51         3.3470   -1.7450    4.2890 hc        1 MOL      0.011690
    116 H52         3.6660   -2.7680    2.8970 hc        1 MOL      0.011690
    117 H53         3.1560   -1.0300    2.7160 hc        1 MOL      0.011690
    118 H54         1.3470   -0.0830    5.2960 hc        1 MOL      0.115594
    119 H55        -0.2850   -0.6060    5.6460 hc        1 MOL      0.115594
    120 H56         1.1700   -1.7830    5.7060 hc        1 MOL      0.115594
    121 N11         2.7610   -3.2090    0.1750 n         1 MOL     -0.340824
    122 C40         3.9610   -3.7780   -0.4400 c3        1 MOL      0.218092
    123 C41         5.2170   -3.3720    0.2950 c         1 MOL      0.485793
    124 O16         5.1960   -2.3730    1.0060 o         1 MOL     -0.431901
    125 C42         4.0100   -3.5070   -1.9630 c3        1 MOL     -0.190380
    126 O17         4.5300   -2.1300   -2.2080 oh        1 MOL     -0.301616
    127 H57         2.3920   -2.3090   -0.0760 hn        1 MOL      0.165070
    128 H58         3.8080   -4.8520   -0.3400 h1        1 MOL      0.028597
    129 H59         3.0260   -3.6880   -2.3960 h1        1 MOL      0.098300
    130 H60         4.7580   -4.2030   -2.3350 h1        1 MOL      0.098300
    131 H61         4.3440   -2.0160   -3.1510 ho        1 MOL      0.352399
    132 N12         6.3500   -3.9990   -0.0180 n         1 MOL     -0.583312
    133 C43         7.6950   -3.4880    0.4230 c3        1 MOL      0.283985
    134 C44         8.0230   -2.0460   -0.1650 c         1 MOL      0.365889
    135 O18         8.8100   -1.2830    0.4280 o         1 MOL     -0.500848
    136 C45         8.7250   -4.5250   -0.1990 c3        1 MOL     -0.248538
    137 H62         6.2980   -4.7520   -0.6920 hn        1 MOL      0.327638
    138 H63         7.9920   -3.5250    1.4630 h1        1 MOL      0.067430
    139 H64         8.5620   -5.4760    0.3060 hc        1 MOL      0.072400
    140 H65         8.5300   -4.6490   -1.2660 hc        1 MOL      0.072400
    141 H66         9.7390   -4.1790   -0.0140 hc        1 MOL      0.072400
    142 N13         7.4310   -1.6660   -1.3310 n         1 MOL     -0.313751
    143 C46         7.6630   -0.3760   -1.9970 c3        1 MOL      0.128790
    144 C47         6.9380    0.7130   -1.2900 c         1 MOL      0.354125
    145 O19         7.4240    1.8210   -1.1890 o         1 MOL     -0.529332
    146 C48         7.1820   -0.4870   -3.4340 c3        1 MOL     -0.305950
    147 H67         6.6710   -2.2380   -1.6620 hn        1 MOL      0.177941
    148 H68         8.7280   -0.1620   -2.1260 h1        1 MOL      0.105461
    149 H69         7.6120   -1.3120   -4.0090 hc        1 MOL      0.078232
    150 H70         6.1020   -0.6220   -3.4830 hc        1 MOL      0.078232
    151 H71         7.4580    0.4910   -3.8150 hc        1 MOL      0.078232
    152 N14         5.6830    0.4370   -0.9670 n         1 MOL     -0.002730
    153 C49         4.7520    1.2760   -0.1740 c3        1 MOL     -0.001289
    154 C50         5.0780    1.4360    1.2870 c         1 MOL      0.376366
    155 O20         4.7760    2.4820    1.8410 o         1 MOL     -0.520315
    156 C51         3.3460    0.6800   -0.1270 c3        1 MOL      0.028162
    157 C52         2.6910    0.9660   -1.4910 c3        1 MOL     -0.125330
    158 C53         1.2300    0.5400   -1.3790 c         1 MOL      0.741391
    159 O21         0.3040    1.3320   -1.7000 o         1 MOL     -0.712694
    160 O22         0.9100   -0.6420   -1.0230 o         1 MOL     -0.712694
    161 H72         5.2870   -0.4260   -1.3070 hn        1 MOL     -0.030473
    162 H73         4.7450    2.2590   -0.6620 h1        1 MOL      0.010867
    163 H74         2.7140    1.0680    0.6760 hc        1 MOL      0.058607
    164 H75         3.4210   -0.4120   -0.1350 hc        1 MOL      0.058607
    165 H76         3.0900    0.3460   -2.2920 hc        1 MOL     -0.014041
    166 H77         2.7250    2.0440   -1.6890 hc        1 MOL     -0.014041
    167 N15         5.7520    0.4380    1.8830 n         1 MOL      0.000714
    168 C54         6.4720    0.5100    3.1330 c3        1 MOL     -0.273757
    169 H78         7.4970    0.8290    2.9420 h1        1 MOL      0.103918
    170 H79         5.9850    1.2290    3.7920 h1        1 MOL      0.103918
    171 H80         6.4800   -0.4710    3.6060 h1        1 MOL      0.103918
    172 H81         5.7870   -0.4380    1.3690 hn        1 MOL      0.073166
    173 Ca1        -1.5990   -0.2840   -0.8970 Ca        1 MOL      1.793429
    174 O23        -1.7340   -1.0540   -3.4900 oh        1 MOL     -0.998073
    175 H82        -0.9760   -1.1660   -4.0650 ho        1 MOL      0.451050
    176 H83        -2.4280   -0.7350   -4.0780 ho        1 MOL      0.451050
@<TRIPOS>BOND
     1    1    2 1   
     2    1    4 1   
     3    1    5 1   
     4    1    6 1   
     5    2    3 2   
     6    2    7 1   
     7    7    8 1   
     8    7   15 1   
     9    8    9 1   
    10    8   11 1   
    11    8   16 1   
    12    9   10 2   
    13    9   19 1   
    14   11   12 1   
    15   11   17 1   
    16   11   18 1   
    17   12   13 1   
    18   12   14 1   
    19   19   20 1   
    20   19   28 1   
    21   20   21 1   
    22   20   23 1   
    23   20   29 1   
    24   21   22 2   
    25   21   41 1   
    26   23   24 1   
    27   23   30 1   
    28   23   31 1   
    29   24   25 1   
    30   24   32 1   
    31   24   33 1   
    32   25   26 1   
    33   25   34 1   
    34   25   35 1   
    35   26   27 1   
    36   26   36 1   
    37   26   37 1   
    38   27   38 1   
    39   27   39 1   
    40   27   40 1   
    41   41   42 1   
    42   41   49 1   
    43   42   43 1   
    44   42   45 1   
    45   42   50 1   
    46   43   44 2   
    47   43   53 1   
    48   45   46 1   
    49   45   51 1   
    50   45   52 1   
    51   46   47 1   
    52   46   48 1   
    53   53   54 1   
    54   53   57 1   
    55   54   55 1   
    56   54   58 1   
    57   54   59 1   
    58   55   56 2   
    59   55   60 1   
    60   60   61 1   
    61   60   68 1   
    62   61   62 1   
    63   61   64 1   
    64   61   69 1   
    65   62   63 2   
    66   62   74 1   
    67   64   65 1   
    68   64   70 1   
    69   64   71 1   
    70   65   66 1   
    71   65   67 2   
    72   66   72 1   
    73   66   73 1   
    74   74   75 1   
    75   74   78 1   
    76   75   76 1   
    77   75   79 1   
    78   75   80 1   
    79   76   77 2   
    80   76   81 1   
    81   81   82 1   
    82   81   93 1   
    83   82   83 1   
    84   82   85 1   
    85   82   94 1   
    86   83   84 2   
    87   83  102 1   
    88   85   86 1   
    89   85   95 1   
    90   85   96 1   
    91   86   87 ar  
    92   86   88 ar  
    93   87   89 ar  
    94   87   97 1   
    95   88   90 ar  
    96   88   98 1   
    97   89   91 ar  
    98   89   99 1   
    99   90   91 ar  
   100   90  100 1   
   101   91   92 1   
   102   92  101 1   
   103  102  103 1   
   104  102  110 1   
   105  103  104 1   
   106  103  106 1   
   107  103  111 1   
   108  104  105 2   
   109  104  121 1   
   110  106  107 1   
   111  106  108 1   
   112  106  112 1   
   113  107  109 1   
   114  107  113 1   
   115  107  114 1   
   116  108  115 1   
   117  108  116 1   
   118  108  117 1   
   119  109  118 1   
   120  109  119 1   
   121  109  120 1   
   122  121  122 1   
   123  121  127 1   
   124  122  123 1   
   125  122  125 1   
   126  122  128 1   
   127  123  124 2   
   128  123  132 1   
   129  125  126 1   
   130  125  129 1   
   131  125  130 1   
   132  126  131 1   
   133  132  133 1   
   134  132  137 1   
   135  133  134 1   
   136  133  136 1   
   137  133  138 1   
   138  134  135 2   
   139  134  142 1   
   140  136  139 1   
   141  136  140 1   
   142  136  141 1   
   143  142  143 1   
   144  142  147 1   
   145  143  144 1   
   146  143  146 1   
   147  143  148 1   
   148  144  145 2   
   149  144  152 1   
   150  146  149 1   
   151  146  150 1   
   152  146  151 1   
   153  152  153 1   
   154  152  161 1   
   155  153  154 1   
   156  153  156 1   
   157  153  162 1   
   158  154  155 2   
   159  154  167 1   
   160  156  157 1   
   161  156  163 1   
   162  156  164 1   
   163  157  158 1   
   164  157  165 1   
   165  157  166 1   
   166  158  159 1   
   167  158  160 1   
   168  167  168 1   
   169  167  172 1   
   170  168  169 1   
   171  168  170 1   
   172  168  171 1   
   173  174  175 1   
   174  174  176 1   
@<TRIPOS>SUBSTRUCTURE
     1 MOL         1 TEMP              0 ****  ****    0 ROOT
