@<TRIPOS>MOLECULE
MOL
  183   181     1     0     0
SMALL
resp


@<TRIPOS>ATOM
      1 C1         -0.3740    1.7830    6.4100 c3        1 MOL     -0.360700
      2 C2         -0.7730    1.7930    4.9120 c         1 MOL      0.712612
      3 O1         -0.0180    2.4730    4.1660 o         1 MOL     -0.591876
      4 H1         -0.7960    0.8990    6.8910 hc        1 MOL      0.084609
      5 H2          0.7120    1.7600    6.4980 hc        1 MOL      0.084609
      6 H3         -0.7610    2.6790    6.8950 hc        1 MOL      0.084609
      7 N1         -1.8720    1.2140    4.4910 n         1 MOL     -0.615607
      8 C3         -2.5630    1.4170    3.2360 c3        1 MOL      0.403575
      9 C4         -2.8590    2.8920    2.8680 c         1 MOL      0.297215
     10 O2         -3.5530    3.6450    3.6480 o         1 MOL     -0.567332
     11 C5         -3.8420    0.5100    3.2480 c3        1 MOL     -0.251969
     12 C6         -4.4180    0.0390    1.8390 c         1 MOL      0.901705
     13 O3         -5.3160   -0.7810    1.8230 o         1 MOL     -0.720274
     14 O4         -3.7680    0.4330    0.8360 o         1 MOL     -0.720274
     15 H4         -2.3750    0.6940    5.1880 hn        1 MOL      0.300366
     16 H5         -1.8710    1.0530    2.4640 h1        1 MOL     -0.060255
     17 H6         -4.6370    0.9760    3.8280 hc        1 MOL      0.028642
     18 H7         -3.5240   -0.3920    3.7680 hc        1 MOL      0.028642
     19 N2         -2.4330    3.2960    1.6410 n         1 MOL     -0.036652
     20 C7         -2.5840    4.7120    1.1880 c3        1 MOL     -0.126875
     21 C8         -3.6160    5.0290    0.1260 c         1 MOL      0.501503
     22 O5         -4.1740    6.1410    0.0510 o         1 MOL     -0.600815
     23 C9         -1.1790    5.2560    0.9510 c3        1 MOL      0.192059
     24 C10        -0.0440    4.7380    1.8850 c3        1 MOL      0.133659
     25 C11        -1.1790    6.7740    0.9050 c3        1 MOL     -0.328333
     26 C12         1.2440    5.5290    1.8280 c3        1 MOL     -0.136139
     27 H8         -2.0440    2.6570    0.9610 hn        1 MOL      0.162162
     28 H9         -2.8960    5.3500    2.0140 h1        1 MOL      0.066907
     29 H10        -0.9040    4.8740   -0.0380 hc        1 MOL     -0.036489
     30 H11         0.2340    3.6990    1.7320 hc        1 MOL      0.012116
     31 H12        -0.3560    4.9220    2.9210 hc        1 MOL      0.012116
     32 H13        -1.8240    7.1040    0.0880 hc        1 MOL      0.066804
     33 H14        -1.5290    7.2220    1.8340 hc        1 MOL      0.066804
     34 H15        -0.1880    7.1470    0.6740 hc        1 MOL      0.066804
     35 H16         1.5700    5.7640    0.8140 hc        1 MOL      0.010124
     36 H17         1.1930    6.4380    2.4290 hc        1 MOL      0.010124
     37 H18         2.0690    4.9160    2.1850 hc        1 MOL      0.010124
     38 N3         -4.0020    4.1400   -0.7480 n         1 MOL     -0.147542
     39 C13        -5.1480    4.1510   -1.7130 c3        1 MOL     -0.162013
     40 C14        -6.3230    3.2720   -1.4070 c         1 MOL      0.395381
     41 O6         -7.3500    3.2640   -2.1150 o         1 MOL     -0.497283
     42 C15        -4.6190    3.7880   -3.1150 c3        1 MOL     -0.192374
     43 C16        -3.8080    2.5190   -3.2450 c         1 MOL      0.817926
     44 O7         -3.6120    1.7170   -2.2580 o         1 MOL     -0.705290
     45 O8         -3.3350    2.2730   -4.3670 o         1 MOL     -0.705290
     46 H19        -3.4740    3.2740   -0.7940 hn        1 MOL      0.128000
     47 H20        -5.3950    5.2120   -1.7300 h1        1 MOL      0.138981
     48 H21        -4.0640    4.6750   -3.4240 hc        1 MOL      0.061201
     49 H22        -5.4620    3.7140   -3.7970 hc        1 MOL      0.061201
     50 N4         -6.1800    2.4070   -0.3690 n         1 MOL     -0.010294
     51 C17        -7.2830    1.5550    0.1470 c3        1 MOL     -0.111442
     52 C18        -7.7440    0.4250   -0.6650 c         1 MOL      0.657317
     53 O9         -8.6510    0.5620   -1.5380 o         1 MOL     -0.574850
     54 H23        -5.2920    2.3780    0.1110 hn        1 MOL      0.016430
     55 H24        -8.1490    2.2100    0.1600 h1        1 MOL      0.031044
     56 H25        -7.1220    1.2130    1.1740 h1        1 MOL      0.031044
     57 N5         -7.0900   -0.7190   -0.5380 n         1 MOL     -0.596542
     58 C19        -7.3300   -1.9440   -1.2760 c3        1 MOL      0.247483
     59 C20        -7.1640   -3.2230   -0.4460 c         1 MOL      0.412047
     60 O10        -7.3080   -4.3540   -0.9660 o         1 MOL     -0.543357
     61 C21        -6.5090   -2.0240   -2.5430 c3        1 MOL     -0.308882
     62 C22        -5.0240   -1.8660   -2.2250 c         1 MOL      0.950268
     63 O11        -4.1880   -1.3880   -3.0350 o         1 MOL     -0.834782
     64 O12        -4.5150   -2.2070   -1.1130 o         1 MOL     -0.834782
     65 H26        -6.2720   -0.7430    0.0510 hn        1 MOL      0.225405
     66 H27        -8.4000   -2.0260   -1.4890 h1        1 MOL      0.022108
     67 H28        -6.7320   -1.2140   -3.2320 hc        1 MOL      0.082704
     68 H29        -6.6130   -2.9680   -3.0820 hc        1 MOL      0.082704
     69 N6         -6.8220   -2.9860    0.8690 n         1 MOL     -0.363011
     70 C23        -6.5950   -4.0420    1.8780 c3        1 MOL     -0.001218
     71 C24        -5.1110   -4.5660    1.9840 c         1 MOL      0.460338
     72 O13        -4.8130   -5.3710    2.9030 o         1 MOL     -0.608665
     73 H30        -6.9380   -2.0420    1.1980 hn        1 MOL      0.288149
     74 H31        -7.2470   -4.8770    1.6470 h1        1 MOL      0.053311
     75 H32        -7.0150   -3.7530    2.8430 h1        1 MOL      0.053311
     76 N7         -4.2550   -4.1650    1.1010 n         1 MOL     -0.233255
     77 C25        -2.8520   -4.5280    0.9370 c3        1 MOL     -0.008048
     78 C26        -1.8370   -3.3650    1.0110 c         1 MOL      0.899642
     79 O14        -2.1820   -2.2710    0.6520 o         1 MOL     -0.764430
     80 C27        -2.5920   -5.5130   -0.2270 c3        1 MOL      0.121658
     81 C28        -2.8770   -5.0050   -1.6270 c3        1 MOL     -0.248943
     82 C29        -1.7640   -4.1580   -2.1510 c         1 MOL      0.563840
     83 N8         -0.5740   -4.6290   -2.5280 n         1 MOL     -0.732534
     84 O15        -1.8330   -2.9640   -2.1800 o         1 MOL     -0.434894
     85 H33        -4.5340   -3.3970    0.4980 hn        1 MOL      0.283001
     86 H34        -2.5720   -5.1390    1.7900 h1        1 MOL      0.024234
     87 H35        -2.9970   -6.5210   -0.0680 hc        1 MOL     -0.028733
     88 H36        -1.5300   -5.7290   -0.1830 hc        1 MOL     -0.028733
     89 H37        -3.7570   -4.3750   -1.7060 hc        1 MOL      0.073768
     90 H38        -3.0160   -5.8370   -2.3110 hc        1 MOL      0.073768
     91 H39        -0.4630   -5.6290   -2.6240 hn        1 MOL      0.320620
     92 H40         0.1630   -3.9590   -2.7000 hn        1 MOL      0.320620
     93 N9         -0.6430   -3.6130    1.5240 n         1 MOL     -0.808469
     94 C30         0.4000   -2.6090    1.7710 c3        1 MOL      0.204468
     95 C31         1.7170   -2.9910    1.0300 c         1 MOL      0.402320
     96 O16         2.5460   -3.8290    1.5090 o         1 MOL     -0.560116
     97 C32         0.7160   -2.5950    3.3230 c3        1 MOL      0.330537
     98 C33         1.5490   -1.3380    3.5910 c3        1 MOL     -0.382347
     99 C34        -0.5170   -2.4810    4.2600 c3        1 MOL     -0.382347
    100 H41        -0.4480   -4.5930    1.6720 hn        1 MOL      0.337393
    101 H42         0.0250   -1.6030    1.5810 h1        1 MOL      0.165919
    102 H43         1.3160   -3.4590    3.5850 hc        1 MOL     -0.045732
    103 H44         2.4590   -1.4130    2.9930 hc        1 MOL      0.075250
    104 H45         0.9800   -0.4380    3.3570 hc        1 MOL      0.075250
    105 H46         1.8580   -1.5180    4.6220 hc        1 MOL      0.075250
    106 H47        -0.8320   -1.4420    4.2450 hc        1 MOL      0.075250
    107 H48        -1.3990   -3.0990    4.1420 hc        1 MOL      0.075250
    108 H49        -0.2140   -2.6970    5.2840 hc        1 MOL      0.075250
    109 N10         1.9560   -2.3800   -0.1350 n         1 MOL     -0.168327
    110 C35         3.1500   -2.5380   -1.0010 c3        1 MOL      0.038981
    111 C36         4.4740   -2.1400   -0.2970 c         1 MOL      0.349283
    112 O17         4.3240   -1.4530    0.7290 o         1 MOL     -0.309490
    113 C37         2.9920   -1.7050   -2.3010 c3        1 MOL     -0.446062
    114 C38         1.7560   -2.0660   -3.1360 c         1 MOL      0.699165
    115 N11         0.8180   -1.2000   -3.1290 n         1 MOL     -0.652432
    116 O18         1.6860   -3.1460   -3.7360 o         1 MOL     -0.609624
    117 H50         1.2700   -1.7120   -0.4470 hn        1 MOL      0.116231
    118 H51         3.2410   -3.5610   -1.3450 h1        1 MOL      0.066977
    119 H52         3.8050   -1.9580   -2.9770 hc        1 MOL      0.137888
    120 H53         3.0140   -0.6320   -2.0890 hc        1 MOL      0.137888
    121 H54         0.8260   -0.3960   -2.5250 hn        1 MOL      0.335373
    122 H55         0.0010   -1.4340   -3.6810 hn        1 MOL      0.335373
    123 N12         5.6300   -2.5200   -0.8260 n         1 MOL     -0.437557
    124 C39         6.8730   -1.9990   -0.2720 c3        1 MOL      0.118011
    125 C40         6.8620   -0.4420   -0.3240 c         1 MOL      0.667154
    126 O19         7.3230    0.2280    0.5420 o         1 MOL     -0.530480
    127 C41         8.1220   -2.6860   -0.9170 c3        1 MOL     -0.116001
    128 C42         9.5210   -2.1060   -0.4810 ca        1 MOL     -0.080888
    129 C43        10.0650   -2.6230    0.7030 ca        1 MOL     -0.075663
    130 C44        10.0520   -0.9960   -1.0960 ca        1 MOL     -0.075663
    131 C45        11.2480   -2.0440    1.2900 ca        1 MOL     -0.319604
    132 C46        11.1800   -0.3660   -0.4920 ca        1 MOL     -0.319604
    133 C47        11.7250   -0.8520    0.7640 ca        1 MOL      0.418840
    134 O20        12.9070   -0.2780    1.2090 oh        1 MOL     -0.550979
    135 H56         5.7810   -3.1160   -1.6310 hn        1 MOL      0.301943
    136 H57         6.9780   -2.1930    0.8030 h1        1 MOL      0.052245
    137 H58         7.9820   -2.6780   -1.9950 hc        1 MOL      0.053607
    138 H59         8.1330   -3.7500   -0.6710 hc        1 MOL      0.053607
    139 H60         9.5850   -3.4790    1.1440 ha        1 MOL      0.123394
    140 H61         9.5890   -0.6400   -1.9970 ha        1 MOL      0.123394
    141 H62        11.7030   -2.3820    2.2060 ha        1 MOL      0.156388
    142 H63        11.6730    0.5150   -0.8550 ha        1 MOL      0.156388
    143 H64        13.1740    0.4760    0.6830 ho        1 MOL      0.381820
    144 N13         6.3770    0.1680   -1.4450 n         1 MOL     -0.481038
    145 C48         6.2800    1.5810   -1.7300 c3        1 MOL      0.047237
    146 C49         5.4420    2.4200   -0.6740 c         1 MOL      0.297900
    147 O21         5.7110    3.5630   -0.3070 o         1 MOL     -0.495533
    148 C50         5.6040    1.6840   -3.0880 c3        1 MOL      0.165744
    149 C51         5.3280    3.0950   -3.5640 c3        1 MOL     -0.328598
    150 C52         4.6970    3.1080   -4.9260 c         1 MOL      0.727200
    151 O22         5.3220    3.6870   -5.8380 o         1 MOL     -0.729823
    152 O23         3.6710    2.4500   -5.2230 o         1 MOL     -0.729823
    153 H65         6.1540   -0.4680   -2.2070 hn        1 MOL      0.192832
    154 H66         7.2380    2.0980   -1.7730 h1        1 MOL      0.061130
    155 H67         4.6380    1.2040   -2.9670 hc        1 MOL     -0.017616
    156 H68         6.2990    1.1600   -3.7500 hc        1 MOL     -0.017616
    157 H69         6.2960    3.5810   -3.5580 hc        1 MOL      0.057051
    158 H70         4.6310    3.5150   -2.8400 hc        1 MOL      0.057051
    159 N14         4.4820    1.6680   -0.0770 n         1 MOL     -0.080154
    160 C53         3.5780    2.1020    1.0730 c3        1 MOL     -0.071504
    161 C54         4.1760    1.9040    2.4610 c         1 MOL      0.424769
    162 O24         3.9760    2.6850    3.3340 o         1 MOL     -0.509321
    163 C55         2.2240    1.3930    1.0720 c3        1 MOL      0.013780
    164 C56         1.3360    1.7100   -0.1740 c3        1 MOL     -0.271802
    165 C57        -0.0070    0.9880   -0.2830 c         1 MOL      0.779715
    166 O25        -1.0520    1.5760   -0.2420 o         1 MOL     -0.698234
    167 O26        -0.0600   -0.2330   -0.5180 o         1 MOL     -0.698234
    168 H71         4.4680    0.6630   -0.2100 hn        1 MOL      0.181288
    169 H72         3.4130    3.1650    0.9180 h1        1 MOL      0.134002
    170 H73         1.5960    1.5390    1.9500 hc        1 MOL      0.040511
    171 H74         2.4160    0.3480    0.8440 hc        1 MOL      0.040511
    172 H75         1.8980    1.4880   -1.0860 hc        1 MOL      0.057374
    173 H76         1.0940    2.7680   -0.0640 hc        1 MOL      0.057374
    174 N15         4.9480    0.7740    2.5680 n         1 MOL     -0.092891
    175 C58         5.6810    0.2720    3.7390 c3        1 MOL     -0.171535
    176 H77         5.1570   -0.5900    4.1520 h1        1 MOL      0.065199
    177 H78         6.6860   -0.0230    3.4390 h1        1 MOL      0.065199
    178 H79         5.7410    1.0560    4.4930 h1        1 MOL      0.065199
    179 H80         5.0520    0.1780    1.7660 hn        1 MOL      0.045768
    180 Ca1        -2.5650   -0.4480   -1.0930 Ca        1 MOL      1.696735
    181 O27        -1.9280    0.0820   -3.6840 oh        1 MOL     -0.864375
    182 H81        -2.4590    0.8640   -3.8160 ho        1 MOL      0.417603
    183 H82        -2.2930   -0.5740   -4.2700 ho        1 MOL      0.417603
@<TRIPOS>BOND
     1    1    2 1   
     2    1    4 1   
     3    1    5 1   
     4    1    6 1   
     5    2    3 2   
     6    2    7 1   
     7    7    8 1   
     8    7   15 1   
     9    8    9 1   
    10    8   11 1   
    11    8   16 1   
    12    9   10 2   
    13    9   19 1   
    14   11   12 1   
    15   11   17 1   
    16   11   18 1   
    17   12   13 1   
    18   12   14 1   
    19   19   20 1   
    20   19   27 1   
    21   20   21 1   
    22   20   23 1   
    23   20   28 1   
    24   21   22 2   
    25   21   38 1   
    26   23   24 1   
    27   23   25 1   
    28   23   29 1   
    29   24   26 1   
    30   24   30 1   
    31   24   31 1   
    32   25   32 1   
    33   25   33 1   
    34   25   34 1   
    35   26   35 1   
    36   26   36 1   
    37   26   37 1   
    38   38   39 1   
    39   38   46 1   
    40   39   40 1   
    41   39   42 1   
    42   39   47 1   
    43   40   41 2   
    44   40   50 1   
    45   42   43 1   
    46   42   48 1   
    47   42   49 1   
    48   43   44 1   
    49   43   45 1   
    50   50   51 1   
    51   50   54 1   
    52   51   52 1   
    53   51   55 1   
    54   51   56 1   
    55   52   53 2   
    56   52   57 1   
    57   57   58 1   
    58   57   65 1   
    59   58   59 1   
    60   58   61 1   
    61   58   66 1   
    62   59   60 2   
    63   59   69 1   
    64   61   62 1   
    65   61   67 1   
    66   61   68 1   
    67   62   63 1   
    68   62   64 1   
    69   69   70 1   
    70   69   73 1   
    71   70   71 1   
    72   70   74 1   
    73   70   75 1   
    74   71   72 2   
    75   71   76 1   
    76   76   77 1   
    77   76   85 1   
    78   77   78 1   
    79   77   80 1   
    80   77   86 1   
    81   78   79 2   
    82   78   93 1   
    83   80   81 1   
    84   80   87 1   
    85   80   88 1   
    86   81   82 1   
    87   81   89 1   
    88   81   90 1   
    89   82   83 1   
    90   82   84 2   
    91   83   91 1   
    92   83   92 1   
    93   93   94 1   
    94   93  100 1   
    95   94   95 1   
    96   94   97 1   
    97   94  101 1   
    98   95   96 2   
    99   95  109 1   
   100   97   98 1   
   101   97   99 1   
   102   97  102 1   
   103   98  103 1   
   104   98  104 1   
   105   98  105 1   
   106   99  106 1   
   107   99  107 1   
   108   99  108 1   
   109  109  110 1   
   110  109  117 1   
   111  110  111 1   
   112  110  113 1   
   113  110  118 1   
   114  111  112 2   
   115  111  123 1   
   116  113  114 1   
   117  113  119 1   
   118  113  120 1   
   119  114  115 1   
   120  114  116 2   
   121  115  121 1   
   122  115  122 1   
   123  123  124 1   
   124  123  135 1   
   125  124  125 1   
   126  124  127 1   
   127  124  136 1   
   128  125  126 2   
   129  125  144 1   
   130  127  128 1   
   131  127  137 1   
   132  127  138 1   
   133  128  129 ar  
   134  128  130 ar  
   135  129  131 ar  
   136  129  139 1   
   137  130  132 ar  
   138  130  140 1   
   139  131  133 ar  
   140  131  141 1   
   141  132  133 ar  
   142  132  142 1   
   143  133  134 1   
   144  134  143 1   
   145  144  145 1   
   146  144  153 1   
   147  145  146 1   
   148  145  148 1   
   149  145  154 1   
   150  146  147 2   
   151  146  159 1   
   152  148  149 1   
   153  148  155 1   
   154  148  156 1   
   155  149  150 1   
   156  149  157 1   
   157  149  158 1   
   158  150  151 1   
   159  150  152 1   
   160  159  160 1   
   161  159  168 1   
   162  160  161 1   
   163  160  163 1   
   164  160  169 1   
   165  161  162 2   
   166  161  174 1   
   167  163  164 1   
   168  163  170 1   
   169  163  171 1   
   170  164  165 1   
   171  164  172 1   
   172  164  173 1   
   173  165  166 1   
   174  165  167 1   
   175  174  175 1   
   176  174  179 1   
   177  175  176 1   
   178  175  177 1   
   179  175  178 1   
   180  181  182 1   
   181  181  183 1   
@<TRIPOS>SUBSTRUCTURE
     1 MOL         1 TEMP              0 ****  ****    0 ROOT
