@<TRIPOS>MOLECULE
MOL
  189   185     1     0     0
SMALL
resp


@<TRIPOS>ATOM
      1 C1         -0.5700    2.1900    6.2460 c3        1 MOL     -0.391859
      2 C2         -0.9180    2.2030    4.6910 c         1 MOL      0.627115
      3 O1         -0.1450    2.6670    3.8940 o         1 MOL     -0.553156
      4 H1         -0.4200    3.2130    6.5920 hc        1 MOL      0.098477
      5 H2         -1.3920    1.7360    6.7990 hc        1 MOL      0.098477
      6 H3          0.3410    1.6160    6.4100 hc        1 MOL      0.098477
      7 N1         -2.0360    1.5840    4.3560 n         1 MOL     -0.505486
      8 C3         -2.6140    1.4470    2.9730 c3        1 MOL      0.098405
      9 C4         -2.9950    2.8660    2.4680 c         1 MOL      0.526009
     10 O2         -3.9740    3.5110    2.8750 o         1 MOL     -0.556793
     11 C5         -3.7370    0.4830    2.9870 c3        1 MOL     -0.340740
     12 C6         -4.2950    0.1620    1.6080 c         1 MOL      0.815657
     13 O3         -5.2770   -0.6110    1.4070 o         1 MOL     -0.660054
     14 O4         -3.8110    0.6640    0.5700 o         1 MOL     -0.660054
     15 H4         -2.5650    1.0870    5.0640 hn        1 MOL      0.313068
     16 H5         -1.7510    1.0860    2.4170 h1        1 MOL      0.036273
     17 H6         -4.4640    1.0090    3.6080 hc        1 MOL      0.084176
     18 H7         -3.4920   -0.4730    3.4430 hc        1 MOL      0.084176
     19 N2         -2.1180    3.3880    1.5930 n         1 MOL     -0.257685
     20 C7         -2.1840    4.6740    0.9070 c3        1 MOL     -0.097502
     21 C8         -3.1310    4.8370   -0.2450 c         1 MOL      0.485730
     22 O5         -3.4360    5.9590   -0.6340 o         1 MOL     -0.581363
     23 C9         -0.7440    5.0750    0.6060 c3        1 MOL      0.014043
     24 C10        -0.6040    6.5850    0.3680 c3        1 MOL     -0.094405
     25 C11         0.8630    7.0120    0.1390 c3        1 MOL      0.205986
     26 C12         0.9010    8.5220    0.2020 c3        1 MOL      0.001772
     27 N3          2.2390    9.1320    0.5130 n4        1 MOL     -0.460439
     28 H8         -1.4150    2.7710    1.2200 hn        1 MOL      0.254034
     29 H9         -2.4940    5.3930    1.6660 h1        1 MOL      0.083622
     30 H10        -0.4970    4.5750   -0.3270 hc        1 MOL      0.043025
     31 H11        -0.0570    4.7810    1.3950 hc        1 MOL      0.043025
     32 H12        -0.9260    7.1840    1.2190 hc        1 MOL      0.045816
     33 H13        -1.1130    6.9210   -0.5330 hc        1 MOL      0.045816
     34 H14         1.3160    6.6430   -0.7770 hc        1 MOL     -0.036838
     35 H15         1.4590    6.6440    0.9670 hc        1 MOL     -0.036838
     36 H16         0.2820    8.7700    1.0730 hx        1 MOL      0.082110
     37 H17         0.4580    8.8910   -0.7180 hx        1 MOL      0.082110
     38 H18         2.1570   10.1400    0.5790 hn        1 MOL      0.348432
     39 H19         2.6070    8.7890    1.3870 hn        1 MOL      0.348432
     40 H20         2.8660    9.0090   -0.2740 hn        1 MOL      0.348432
     41 N4         -3.5880    3.7220   -0.8360 n         1 MOL     -0.051754
     42 C13        -4.5660    3.6780   -1.8670 c3        1 MOL     -0.009022
     43 C14        -5.9320    3.2700   -1.3790 c         1 MOL      0.377887
     44 O6         -6.9000    4.0120   -1.5940 o         1 MOL     -0.536219
     45 C15        -4.1140    2.7210   -3.0210 c3        1 MOL      0.115312
     46 C16        -2.5960    2.7650   -3.0900 c         1 MOL      0.584422
     47 O7         -2.0880    3.6850   -3.7310 o         1 MOL     -0.631820
     48 O8         -1.9120    2.0160   -2.3890 o         1 MOL     -0.631820
     49 H21        -3.2670    2.8400   -0.4620 hn        1 MOL      0.014316
     50 H22        -4.6780    4.6540   -2.3350 h1        1 MOL      0.077606
     51 H23        -4.5330    3.0820   -3.9620 hc        1 MOL     -0.043539
     52 H24        -4.4990    1.7190   -2.8400 hc        1 MOL     -0.043539
     53 N5         -6.0430    2.2910   -0.4880 n         1 MOL     -0.043051
     54 C17        -7.2210    1.7060    0.0780 c3        1 MOL     -0.256705
     55 C18        -7.6580    0.4720   -0.6930 c         1 MOL      0.549065
     56 O9         -8.7730    0.2960   -1.1490 o         1 MOL     -0.571712
     57 H25        -5.2050    1.8500   -0.1570 hn        1 MOL      0.059039
     58 H26        -8.0360    2.4220   -0.0620 h1        1 MOL      0.115192
     59 H27        -6.9960    1.5560    1.1430 h1        1 MOL      0.115192
     60 N6         -6.7070   -0.4250   -1.0100 n         1 MOL     -0.219656
     61 C19        -6.8540   -1.6760   -1.7920 c3        1 MOL     -0.163055
     62 C20        -6.8720   -2.9690   -0.9390 c         1 MOL      0.496066
     63 O10        -6.9940   -4.0790   -1.4150 o         1 MOL     -0.541540
     64 C21        -5.7310   -1.7670   -2.9250 c3        1 MOL     -0.007533
     65 C22        -4.3590   -1.2980   -2.4620 c         1 MOL      0.551917
     66 O11        -3.5940   -0.6070   -3.1540 o         1 MOL     -0.678501
     67 O12        -4.0390   -1.7350   -1.3370 o         1 MOL     -0.678501
     68 H28        -5.8530   -0.4050   -0.4620 hn        1 MOL      0.236223
     69 H29        -7.7870   -1.7080   -2.3510 h1        1 MOL      0.136527
     70 H30        -6.0350   -1.0340   -3.6770 hc        1 MOL      0.030065
     71 H31        -5.8510   -2.7000   -3.4640 hc        1 MOL      0.030065
     72 N7         -6.6870   -2.7970    0.3680 n         1 MOL     -0.297095
     73 C23        -6.3830   -3.8610    1.3970 c3        1 MOL     -0.047303
     74 C24        -5.0220   -4.5860    1.2210 c         1 MOL      0.411364
     75 O13        -4.9760   -5.7880    1.5760 o         1 MOL     -0.557759
     76 H32        -6.4810   -1.8510    0.6740 hn        1 MOL      0.185990
     77 H33        -7.1900   -4.5810    1.4210 h1        1 MOL      0.080783
     78 H34        -6.3520   -3.3310    2.3520 h1        1 MOL      0.080783
     79 N8         -4.0440   -3.9940    0.6060 n         1 MOL      0.003091
     80 C25        -2.8040   -4.6960    0.2870 c3        1 MOL     -0.280544
     81 C26        -1.5630   -3.7360    0.4820 c         1 MOL      0.547943
     82 O14        -1.6710   -2.4820    0.2780 o         1 MOL     -0.605317
     83 C27        -2.9140   -5.1520   -1.1500 c3        1 MOL      0.439192
     84 C28        -4.0220   -6.1840   -1.4640 c3        1 MOL     -0.597472
     85 O15        -2.9840   -4.1180   -2.1010 oh        1 MOL     -0.588067
     86 H35        -4.1840   -3.0450    0.2930 hn        1 MOL      0.078950
     87 H36        -2.7060   -5.5770    0.9180 h1        1 MOL      0.121706
     88 H37        -1.9580   -5.6000   -1.4280 h1        1 MOL     -0.011963
     89 H38        -3.4880   -3.4180   -1.6720 ho        1 MOL      0.384973
     90 H39        -4.9800   -5.6980   -1.2420 hc        1 MOL      0.169822
     91 H40        -3.8860   -6.3210   -2.5350 hc        1 MOL      0.169822
     92 H41        -3.9280   -7.1090   -0.8840 hc        1 MOL      0.169822
     93 N9         -0.3600   -4.2360    0.8430 n         1 MOL     -0.403339
     94 C29         0.8820   -3.5040    1.1750 c3        1 MOL      0.067481
     95 C30         1.9440   -3.8570    0.1200 c         1 MOL      0.525111
     96 O16         2.4040   -4.9690    0.1490 o         1 MOL     -0.532572
     97 C31         1.2940   -3.7730    2.7310 c3        1 MOL      0.011514
     98 C32         0.3300   -3.2330    3.8130 c3        1 MOL     -0.011798
     99 C33         2.7280   -3.2570    3.0450 c3        1 MOL     -0.095468
    100 C34        -0.0210   -1.7590    3.8430 c3        1 MOL     -0.036897
    101 H42        -0.3210   -5.2420    0.9140 hn        1 MOL      0.267573
    102 H43         0.6910   -2.4540    0.9440 h1        1 MOL      0.112407
    103 H44         1.3690   -4.8450    2.8270 hc        1 MOL      0.019151
    104 H45         0.6610   -3.5500    4.8090 hc        1 MOL      0.004172
    105 H46        -0.5740   -3.8160    3.6740 hc        1 MOL      0.004172
    106 H47         2.9020   -3.5460    4.0830 hc        1 MOL      0.012048
    107 H48         3.5010   -3.6740    2.4060 hc        1 MOL      0.012048
    108 H49         2.7150   -2.1750    3.0090 hc        1 MOL      0.012048
    109 H50        -0.6620   -1.5430    4.6940 hc        1 MOL      0.023630
    110 H51         0.8700   -1.1390    3.9590 hc        1 MOL      0.023630
    111 H52        -0.5510   -1.5450    2.9140 hc        1 MOL      0.023630
    112 N10         2.2460   -2.9190   -0.7990 n         1 MOL     -0.541385
    113 C35         3.5240   -2.9750   -1.5730 c3        1 MOL      0.374434
    114 C36         4.7680   -2.6800   -0.7480 c         1 MOL      0.024218
    115 O17         4.6700   -2.2050    0.3740 o         1 MOL     -0.073925
    116 C37         3.4350   -2.0150   -2.7410 c3        1 MOL      0.020791
    117 C38         2.2600   -2.1780   -3.7100 c3        1 MOL     -0.131538
    118 O18         3.2120   -0.6960   -2.2410 oh        1 MOL     -0.472401
    119 H53         1.8980   -1.9760   -0.7090 hn        1 MOL      0.369086
    120 H54         3.7250   -3.9650   -1.9830 h1        1 MOL      0.016593
    121 H55         4.3570   -2.0330   -3.3250 h1        1 MOL      0.028910
    122 H56         3.0660   -0.2160   -3.0620 ho        1 MOL      0.321090
    123 H57         1.3330   -2.6060   -3.3320 hc        1 MOL      0.047149
    124 H58         2.0230   -1.2650   -4.2500 hc        1 MOL      0.047149
    125 H59         2.5850   -2.8880   -4.4700 hc        1 MOL      0.047149
    126 N11         5.9500   -2.9490   -1.2470 n         1 MOL     -0.150592
    127 C39         7.2360   -2.8010   -0.6000 c3        1 MOL     -0.187256
    128 C40         7.5350   -1.3820   -0.1040 c         1 MOL      0.475881
    129 O19         8.1580   -1.2350    0.9330 o         1 MOL     -0.504738
    130 C41         8.3460   -3.1950   -1.6620 c3        1 MOL      0.253302
    131 C42         8.3160   -4.7050   -1.9310 c3        1 MOL     -0.392219
    132 O20         8.1970   -2.5690   -2.8820 oh        1 MOL     -0.631062
    133 H60         5.9780   -3.1600   -2.2300 hn        1 MOL      0.237459
    134 H61         7.4530   -3.5550    0.1630 h1        1 MOL      0.155652
    135 H62         9.2930   -2.8760   -1.2170 h1        1 MOL      0.051508
    136 H63         8.8560   -2.9410   -3.4760 ho        1 MOL      0.426029
    137 H64         8.4120   -5.2850   -1.0200 hc        1 MOL      0.113508
    138 H65         7.4090   -4.9330   -2.4840 hc        1 MOL      0.113508
    139 H66         9.1230   -4.9660   -2.6170 hc        1 MOL      0.113508
    140 N12         7.0340   -0.3730   -0.7640 n         1 MOL     -0.317250
    141 C43         7.0440    1.0610   -0.3190 c3        1 MOL     -0.010942
    142 C44         6.1230    1.2520    0.8590 c         1 MOL      0.390580
    143 O21         6.4320    2.1270    1.6820 o         1 MOL     -0.554212
    144 C45         6.4800    1.8580   -1.4300 c3        1 MOL     -0.069607
    145 C46         6.8020    3.3500   -1.3610 c3        1 MOL     -0.023065
    146 C47         6.3000    4.1000   -2.5610 c3        1 MOL     -0.000524
    147 C48         7.2360    3.8900   -3.8010 c3        1 MOL     -0.077564
    148 N13         8.6690    4.2190   -3.5710 n4        1 MOL     -0.236618
    149 H67         6.7420   -0.5220   -1.7160 hn        1 MOL      0.211877
    150 H68         8.0490    1.3620   -0.0120 h1        1 MOL      0.115028
    151 H69         5.3970    1.7500   -1.5590 hc        1 MOL      0.040564
    152 H70         6.9950    1.5700   -2.3460 hc        1 MOL      0.040564
    153 H71         7.8780    3.4830   -1.2530 hc        1 MOL      0.013405
    154 H72         6.3070    3.7940   -0.4960 hc        1 MOL      0.013405
    155 H73         6.1990    5.1720   -2.4390 hc        1 MOL      0.057583
    156 H74         5.2960    3.7730   -2.8300 hc        1 MOL      0.057583
    157 H75         6.7620    4.4850   -4.5870 hx        1 MOL      0.099347
    158 H76         7.1780    2.8500   -4.1220 hx        1 MOL      0.099347
    159 H77         9.0740    3.5090   -2.9900 hn        1 MOL      0.257711
    160 H78         9.2470    4.1620   -4.3870 hn        1 MOL      0.257711
    161 H79         8.8100    5.1430   -3.1900 hn        1 MOL      0.257711
    162 N14         5.0220    0.5010    1.0460 n         1 MOL     -0.023909
    163 C49         4.1690    0.5930    2.2840 c3        1 MOL     -0.050321
    164 C50         4.8340   -0.3230    3.3810 c         1 MOL      0.515692
    165 O22         4.7400    0.1690    4.4920 o         1 MOL     -0.555122
    166 C51         2.7600    0.2120    1.9260 c3        1 MOL      0.202858
    167 C52         1.9820    1.3320    1.1230 c3        1 MOL     -0.389660
    168 C53         0.6900    0.8380    0.4620 c         1 MOL      0.856556
    169 O23        -0.3200    1.5780    0.3610 o         1 MOL     -0.804761
    170 O24         0.5850   -0.3020    0.0410 o         1 MOL     -0.804761
    171 H80         4.7940   -0.2210    0.3780 hn        1 MOL     -0.023141
    172 H81         4.1540    1.6240    2.6390 h1        1 MOL      0.080486
    173 H82         2.3690    0.0130    2.9230 hc        1 MOL      0.004454
    174 H83         2.7150   -0.7720    1.4690 hc        1 MOL      0.004454
    175 H84         2.6860    1.6160    0.3400 hc        1 MOL      0.074457
    176 H85         1.8920    2.2440    1.7200 hc        1 MOL      0.074457
    177 N15         5.3580   -1.5110    3.0310 n         1 MOL     -0.149290
    178 C54         6.2600   -2.1670    3.9610 c3        1 MOL     -0.210047
    179 H86         6.2280   -1.6530    4.9220 h1        1 MOL      0.087007
    180 H87         5.9540   -3.2050    4.0940 h1        1 MOL      0.087007
    181 H88         7.2750   -2.1360    3.5670 h1        1 MOL      0.087007
    182 H89         5.1790   -1.8240    2.0930 hn        1 MOL      0.103988
    183 Ca1        -1.9200   -0.1960   -1.0740 Ca        1 MOL      1.743483
    184 O25        -1.2060   -2.3780   -2.5450 oh        1 MOL     -0.818879
    185 H90        -1.0910   -2.3330   -3.4920 ho        1 MOL      0.398688
    186 H91        -1.9080   -3.0060   -2.4130 ho        1 MOL      0.398688
    187 O26         0.1850    0.3550   -2.9130 oh        1 MOL     -0.818879
    188 H92         0.7850    0.9460   -2.4610 ho        1 MOL      0.398688
    189 H93         0.2080    0.6490   -3.8280 ho        1 MOL      0.398688
@<TRIPOS>BOND
     1    1    2 1   
     2    1    4 1   
     3    1    5 1   
     4    1    6 1   
     5    2    3 2   
     6    2    7 1   
     7    7    8 1   
     8    7   15 1   
     9    8    9 1   
    10    8   11 1   
    11    8   16 1   
    12    9   10 2   
    13    9   19 1   
    14   11   12 1   
    15   11   17 1   
    16   11   18 1   
    17   12   13 1   
    18   12   14 1   
    19   19   20 1   
    20   19   28 1   
    21   20   21 1   
    22   20   23 1   
    23   20   29 1   
    24   21   22 2   
    25   21   41 1   
    26   23   24 1   
    27   23   30 1   
    28   23   31 1   
    29   24   25 1   
    30   24   32 1   
    31   24   33 1   
    32   25   26 1   
    33   25   34 1   
    34   25   35 1   
    35   26   27 1   
    36   26   36 1   
    37   26   37 1   
    38   27   38 1   
    39   27   39 1   
    40   27   40 1   
    41   41   42 1   
    42   41   49 1   
    43   42   43 1   
    44   42   45 1   
    45   42   50 1   
    46   43   44 2   
    47   43   53 1   
    48   45   46 1   
    49   45   51 1   
    50   45   52 1   
    51   46   47 1   
    52   46   48 1   
    53   53   54 1   
    54   53   57 1   
    55   54   55 1   
    56   54   58 1   
    57   54   59 1   
    58   55   56 2   
    59   55   60 1   
    60   60   61 1   
    61   60   68 1   
    62   61   62 1   
    63   61   64 1   
    64   61   69 1   
    65   62   63 2   
    66   62   72 1   
    67   64   65 1   
    68   64   70 1   
    69   64   71 1   
    70   65   66 1   
    71   65   67 1   
    72   72   73 1   
    73   72   76 1   
    74   73   74 1   
    75   73   77 1   
    76   73   78 1   
    77   74   75 2   
    78   74   79 1   
    79   79   80 1   
    80   79   86 1   
    81   80   81 1   
    82   80   83 1   
    83   80   87 1   
    84   81   82 2   
    85   81   93 1   
    86   83   84 1   
    87   83   85 1   
    88   83   88 1   
    89   84   90 1   
    90   84   91 1   
    91   84   92 1   
    92   85   89 1   
    93   93   94 1   
    94   93  101 1   
    95   94   95 1   
    96   94   97 1   
    97   94  102 1   
    98   95   96 2   
    99   95  112 1   
   100   97   98 1   
   101   97   99 1   
   102   97  103 1   
   103   98  100 1   
   104   98  104 1   
   105   98  105 1   
   106   99  106 1   
   107   99  107 1   
   108   99  108 1   
   109  100  109 1   
   110  100  110 1   
   111  100  111 1   
   112  112  113 1   
   113  112  119 1   
   114  113  114 1   
   115  113  116 1   
   116  113  120 1   
   117  114  115 2   
   118  114  126 1   
   119  116  117 1   
   120  116  118 1   
   121  116  121 1   
   122  117  123 1   
   123  117  124 1   
   124  117  125 1   
   125  118  122 1   
   126  126  127 1   
   127  126  133 1   
   128  127  128 1   
   129  127  130 1   
   130  127  134 1   
   131  128  129 2   
   132  128  140 1   
   133  130  131 1   
   134  130  132 1   
   135  130  135 1   
   136  131  137 1   
   137  131  138 1   
   138  131  139 1   
   139  132  136 1   
   140  140  141 1   
   141  140  149 1   
   142  141  142 1   
   143  141  144 1   
   144  141  150 1   
   145  142  143 2   
   146  142  162 1   
   147  144  145 1   
   148  144  151 1   
   149  144  152 1   
   150  145  146 1   
   151  145  153 1   
   152  145  154 1   
   153  146  147 1   
   154  146  155 1   
   155  146  156 1   
   156  147  148 1   
   157  147  157 1   
   158  147  158 1   
   159  148  159 1   
   160  148  160 1   
   161  148  161 1   
   162  162  163 1   
   163  162  171 1   
   164  163  164 1   
   165  163  166 1   
   166  163  172 1   
   167  164  165 2   
   168  164  177 1   
   169  166  167 1   
   170  166  173 1   
   171  166  174 1   
   172  167  168 1   
   173  167  175 1   
   174  167  176 1   
   175  168  169 1   
   176  168  170 1   
   177  177  178 1   
   178  177  182 1   
   179  178  179 1   
   180  178  180 1   
   181  178  181 1   
   182  184  185 1   
   183  184  186 1   
   184  187  188 1   
   185  187  189 1   
@<TRIPOS>SUBSTRUCTURE
     1 MOL         1 TEMP              0 ****  ****    0 ROOT
