@<TRIPOS>MOLECULE
MOL
  179   176     1     0     0
SMALL
resp


@<TRIPOS>ATOM
      1 C1          0.5880    4.2030    5.1080 c3        1 MOL     -0.295445
      2 C2          0.2760    3.5960    3.7300 c         1 MOL      0.484458
      3 O1          1.1250    3.5900    2.7740 o         1 MOL     -0.552890
      4 H1          0.2380    5.2340    5.1380 hc        1 MOL      0.088288
      5 H2          0.0830    3.6250    5.8830 hc        1 MOL      0.088288
      6 H3          1.6640    4.1800    5.2810 hc        1 MOL      0.088288
      7 N1         -0.9140    3.0310    3.5470 n         1 MOL     -0.360650
      8 C3         -1.4790    2.5470    2.3120 c3        1 MOL     -0.162143
      9 C4         -2.3340    3.7380    1.8640 c         1 MOL      0.370820
     10 O2         -3.4570    3.8850    2.3810 o         1 MOL     -0.493237
     11 C5         -2.2240    1.2820    2.6020 c3        1 MOL     -0.346855
     12 C6         -2.9780    0.7380    1.3380 c         1 MOL      1.089945
     13 O3         -2.5020    1.1580    0.2200 o         1 MOL     -0.809091
     14 O4         -3.8980   -0.0390    1.4840 o         1 MOL     -0.809091
     15 H4         -1.5000    3.1280    4.3610 hn        1 MOL      0.318009
     16 H5         -0.6960    2.2930    1.5910 h1        1 MOL      0.118663
     17 H6         -2.9230    1.4400    3.4210 hc        1 MOL      0.088269
     18 H7         -1.5440    0.5230    2.9980 hc        1 MOL      0.088269
     19 N2         -1.8940    4.5530    0.9130 n         1 MOL     -0.185566
     20 C7         -2.5580    5.8390    0.5760 c3        1 MOL      0.019857
     21 C8         -3.5440    5.5820   -0.6120 c         1 MOL      0.404622
     22 O5         -4.2660    6.4740   -1.0850 o         1 MOL     -0.566722
     23 C9         -1.5880    6.9720    0.2550 c3        1 MOL     -0.114366
     24 C10        -0.4580    7.0440    1.2760 c3        1 MOL      0.176848
     25 C11         0.3390    8.3070    1.3460 c3        1 MOL     -0.142875
     26 C12         0.8260    8.7500   -0.0350 c3        1 MOL      0.128596
     27 N3          1.9380    9.7070    0.1210 n4        1 MOL     -0.433966
     28 H8         -1.0740    4.2790    0.3840 hn        1 MOL      0.304744
     29 H9         -3.2030    6.0210    1.4320 h1        1 MOL      0.086292
     30 H10        -2.1490    7.9030    0.3030 hc        1 MOL      0.030148
     31 H11        -1.1690    6.8130   -0.7330 hc        1 MOL      0.030148
     32 H12         0.2820    6.2580    1.1370 hc        1 MOL     -0.005261
     33 H13        -0.8590    6.8560    2.2680 hc        1 MOL     -0.005261
     34 H14         0.9690    8.3140    2.2360 hc        1 MOL      0.048235
     35 H15        -0.4370    9.0450    1.5800 hc        1 MOL      0.048235
     36 H16        -0.0360    9.1920   -0.5390 hx        1 MOL      0.070254
     37 H17         1.1720    7.9070   -0.6290 hx        1 MOL      0.070254
     38 H18         2.1240   10.0870   -0.7970 hn        1 MOL      0.347702
     39 H19         1.6690   10.3490    0.8440 hn        1 MOL      0.347702
     40 H20         2.7670    9.2000    0.4150 hn        1 MOL      0.347702
     41 N4         -3.5970    4.3630   -1.1560 n         1 MOL     -0.141721
     42 C13        -4.5820    4.0050   -2.2710 c3        1 MOL      0.077264
     43 C14        -5.7270    3.0950   -1.7610 c         1 MOL      0.378451
     44 O6         -6.7660    2.9540   -2.3940 o         1 MOL     -0.544293
     45 C15        -3.7920    3.3090   -3.4060 c3        1 MOL     -0.307085
     46 C16        -2.8650    2.1890   -2.9860 c         1 MOL      0.820631
     47 O7         -1.6330    2.4790   -2.7190 o         1 MOL     -0.730536
     48 O8         -3.4310    1.0930   -2.8700 o         1 MOL     -0.730536
     49 H21        -2.8680    3.7760   -0.7770 hn        1 MOL      0.032876
     50 H22        -5.0640    4.9220   -2.5990 h1        1 MOL      0.112006
     51 H23        -3.2340    4.1070   -3.9000 hc        1 MOL      0.063692
     52 H24        -4.5140    2.9910   -4.1490 hc        1 MOL      0.063692
     53 N5         -5.5440    2.5640   -0.5850 n         1 MOL     -0.053946
     54 C17        -6.6320    2.0010    0.1740 c3        1 MOL     -0.404648
     55 C18        -6.8180    0.4840   -0.1060 c         1 MOL      0.673995
     56 O9         -7.6000   -0.0720    0.5650 o         1 MOL     -0.586616
     57 H25        -4.7020    2.7070   -0.0410 hn        1 MOL      0.146742
     58 H26        -7.5540    2.5270   -0.0480 h1        1 MOL      0.156533
     59 H27        -6.2930    2.1110    1.2010 h1        1 MOL      0.156533
     60 N6         -6.1370   -0.1220   -1.0280 n         1 MOL     -0.310988
     61 C19        -6.4300   -1.4920   -1.4290 c3        1 MOL     -0.072805
     62 C20        -6.2410   -2.6140   -0.2950 c         1 MOL      0.375735
     63 O10        -6.8150   -3.6650   -0.3890 o         1 MOL     -0.525421
     64 C21        -5.4870   -1.8220   -2.6520 c3        1 MOL     -0.188551
     65 C22        -4.0260   -2.2280   -2.3180 c         1 MOL      0.482753
     66 N7         -3.5430   -3.2460   -3.0090 n         1 MOL     -0.688209
     67 O11        -3.4240   -1.6390   -1.3770 o         1 MOL     -0.456577
     68 H28        -5.3320    0.3070   -1.4650 hn        1 MOL      0.271344
     69 H29        -7.4440   -1.5120   -1.8420 h1        1 MOL      0.107297
     70 H30        -5.5410   -0.9450   -3.3030 hc        1 MOL      0.090272
     71 H31        -5.9250   -2.6560   -3.1880 hc        1 MOL      0.090272
     72 H32        -4.1270   -3.7090   -3.6980 hn        1 MOL      0.344099
     73 H33        -2.6320   -3.5920   -2.7480 hn        1 MOL      0.344099
     74 N8         -5.4670   -2.3240    0.7470 n         1 MOL     -0.005702
     75 C23        -5.2940   -2.9820    2.1140 c3        1 MOL     -0.437615
     76 C24        -3.8520   -3.4380    2.3140 c         1 MOL      0.815470
     77 O12        -3.6320   -4.1840    3.2360 o         1 MOL     -0.606742
     78 H34        -4.9520   -1.4640    0.6660 hn        1 MOL      0.283772
     79 H35        -5.8960   -3.8950    2.1620 h1        1 MOL      0.165732
     80 H36        -5.5930   -2.2610    2.8710 h1        1 MOL      0.165732
     81 N9         -2.8970   -3.0550    1.4560 n         1 MOL     -0.459115
     82 C25        -1.5500   -3.6520    1.3870 c3        1 MOL      0.156535
     83 C26        -0.4770   -2.5050    1.1900 c         1 MOL      0.629270
     84 O13        -0.6500   -1.6010    0.3780 o         1 MOL     -0.566577
     85 C27        -1.3970   -4.7880    0.3450 c3        1 MOL     -0.179778
     86 C28        -2.4920   -5.9390    0.4810 ca        1 MOL      0.260290
     87 C29        -3.4780   -6.1060   -0.5320 ca        1 MOL     -0.394258
     88 C30        -2.2860   -6.8850    1.4850 ca        1 MOL     -0.394258
     89 C31        -4.4480   -7.0960   -0.3260 ca        1 MOL     -0.067412
     90 C32        -3.1850   -7.9590    1.6670 ca        1 MOL     -0.067412
     91 C33        -4.2810   -7.9980    0.7330 ca        1 MOL      0.212822
     92 O14        -5.1860   -8.9420    0.8200 oh        1 MOL     -0.487051
     93 H37        -3.0580   -2.1560    1.0270 hn        1 MOL      0.067993
     94 H38        -1.3180   -4.1090    2.3500 h1        1 MOL      0.004828
     95 H39        -0.4020   -5.2370    0.3370 hc        1 MOL      0.039430
     96 H40        -1.4610   -4.2990   -0.6210 hc        1 MOL      0.039430
     97 H41        -3.5450   -5.4660   -1.4060 ha        1 MOL      0.197856
     98 H42        -1.5390   -6.7280    2.2490 ha        1 MOL      0.197856
     99 H43        -5.2070   -7.2320   -1.0840 ha        1 MOL      0.109695
    100 H44        -2.9860   -8.7500    2.3850 ha        1 MOL      0.109695
    101 H45        -5.1010   -9.6930    1.4110 ho        1 MOL      0.385355
    102 N10         0.6970   -2.6370    1.8060 n         1 MOL     -0.510738
    103 C34         1.8960   -1.8720    1.4390 c3        1 MOL     -0.019010
    104 C35         2.9910   -2.8610    1.0680 c         1 MOL      0.542669
    105 O15         3.2710   -3.7470    1.8550 o         1 MOL     -0.565922
    106 C36         2.4010   -0.8610    2.4820 c3        1 MOL      0.106484
    107 C37         2.9480   -1.5530    3.7740 c3        1 MOL     -0.036539
    108 C38         1.3170    0.2640    2.6820 c3        1 MOL     -0.280012
    109 C39         3.3910   -0.5700    4.8450 c3        1 MOL     -0.089730
    110 H46         0.8640   -3.3930    2.4550 hn        1 MOL      0.313970
    111 H47         1.8290   -1.2330    0.5650 h1        1 MOL      0.059377
    112 H48         3.3020   -0.3840    2.1010 hc        1 MOL     -0.019696
    113 H49         3.8610   -2.0680    3.4650 hc        1 MOL      0.031010
    114 H50         2.1230   -2.1160    4.2150 hc        1 MOL      0.031010
    115 H51         0.4510   -0.1570    3.1760 hc        1 MOL      0.106783
    116 H52         1.7070    1.1920    3.1010 hc        1 MOL      0.106783
    117 H53         1.0020    0.5650    1.6820 hc        1 MOL      0.106783
    118 H54         3.9450   -1.1260    5.6040 hc        1 MOL      0.017466
    119 H55         4.1080    0.1840    4.5180 hc        1 MOL      0.017466
    120 H56         2.5180   -0.0920    5.2810 hc        1 MOL      0.017466
    121 N11         3.6020   -2.7170   -0.1040 n         1 MOL     -0.399946
    122 C40         4.7780   -3.4300   -0.5230 c3        1 MOL      0.182643
    123 C41         6.0270   -2.8000    0.1230 c         1 MOL      0.341038
    124 O16         6.0210   -1.6040    0.5460 o         1 MOL     -0.259813
    125 C42         4.7260   -3.4550   -2.0600 c3        1 MOL     -0.350424
    126 O17         5.0350   -2.1560   -2.3460 oh        1 MOL     -0.183652
    127 H57         3.3140   -1.9180   -0.6330 hn        1 MOL      0.233406
    128 H58         4.7300   -4.4660   -0.2110 h1        1 MOL      0.063313
    129 H59         3.7160   -3.6870   -2.4010 h1        1 MOL      0.148370
    130 H60         5.5080   -4.1110   -2.4570 h1        1 MOL      0.148370
    131 H61         4.4610   -1.8840   -3.0610 ho        1 MOL      0.339250
    132 N12         7.2130   -3.4070   -0.0200 n         1 MOL     -0.465617
    133 C43         8.4670   -2.6700    0.2720 c3        1 MOL      0.257161
    134 C44         8.7170   -1.5030   -0.6810 c         1 MOL      0.423295
    135 O18         9.4930   -0.6120   -0.4110 o         1 MOL     -0.538465
    136 C45         9.7040   -3.5430    0.3840 c3        1 MOL     -0.300855
    137 H62         7.3180   -4.3050   -0.4730 hn        1 MOL      0.315715
    138 H63         8.2790   -2.0980    1.1790 h1        1 MOL      0.052798
    139 H64         9.7380   -4.2240   -0.4580 hc        1 MOL      0.091327
    140 H65        10.6330   -2.9850    0.5170 hc        1 MOL      0.091327
    141 H66         9.5400   -4.1420    1.2700 hc        1 MOL      0.091327
    142 N13         8.0240   -1.3890   -1.7830 n         1 MOL     -0.361151
    143 C46         8.0980   -0.2570   -2.7220 c3        1 MOL      0.207233
    144 C47         7.2280    0.8930   -2.3230 c         1 MOL      0.419793
    145 O19         7.4390    1.9780   -2.8800 o         1 MOL     -0.559725
    146 C48         7.7290   -0.8520   -4.0310 c3        1 MOL     -0.096465
    147 H67         7.2490   -2.0350   -1.8810 hn        1 MOL      0.173891
    148 H68         9.0930    0.1600   -2.8270 h1        1 MOL      0.079955
    149 H69         7.9200   -0.1040   -4.7970 hc        1 MOL      0.017563
    150 H70         8.3890   -1.6790   -4.3020 hc        1 MOL      0.017563
    151 H71         6.6680   -1.1120   -4.0320 hc        1 MOL      0.017563
    152 N14         6.2470    0.7030   -1.4160 n         1 MOL      0.082513
    153 C49         5.4460    1.7580   -0.7680 c3        1 MOL     -0.036542
    154 C50         5.9140    2.0790    0.6670 c         1 MOL      0.407485
    155 O20         5.7310    3.2550    1.0550 o         1 MOL     -0.538027
    156 C51         3.9850    1.2130   -0.6510 c3        1 MOL     -0.053773
    157 C52         3.0560    1.6300   -1.7570 c3        1 MOL     -0.216114
    158 C53         1.6890    0.9920   -1.7930 c         1 MOL      0.756591
    159 O21         1.2710    0.4010   -2.8240 o         1 MOL     -0.781531
    160 O22         0.9300    1.0970   -0.8080 o         1 MOL     -0.781531
    161 H72         6.0750   -0.2460   -1.1090 hn        1 MOL     -0.392866
    162 H73         5.3870    2.6960   -1.3180 h1        1 MOL      0.083180
    163 H74         3.5910    1.6750    0.2540 hc        1 MOL      0.104507
    164 H75         3.9220    0.1320   -0.5140 hc        1 MOL      0.104507
    165 H76         3.6090    1.5370   -2.6840 hc        1 MOL      0.057262
    166 H77         2.8880    2.7090   -1.7320 hc        1 MOL      0.057262
    167 N15         6.3320    1.0580    1.4210 n         1 MOL     -0.120728
    168 C54         6.8970    1.2530    2.7960 c3        1 MOL     -0.162244
    169 H78         6.5450    0.4550    3.4500 h1        1 MOL      0.083249
    170 H79         7.9860    1.2290    2.7480 h1        1 MOL      0.083249
    171 H80         6.5720    2.2160    3.1910 h1        1 MOL      0.083249
    172 H81         6.1010    0.0990    1.1730 hn        1 MOL      0.144051
    173 Ca1        -1.2580    0.0080   -1.7050 Ca        1 MOL      1.716315
    174 O23        -0.5180   -2.4910   -2.5940 oh        1 MOL     -0.834764
    175 H82         0.1280   -3.1100   -2.2480 ho        1 MOL      0.408410
    176 H83        -0.5860   -2.7010   -3.5300 ho        1 MOL      0.408410
    177 O24        -1.1230   -0.2650   -4.4600 oh        1 MOL     -0.834764
    178 H84        -0.6160   -0.9890   -4.8160 ho        1 MOL      0.408410
    179 H85        -1.0970    0.4180   -5.1310 ho        1 MOL      0.408410
@<TRIPOS>BOND
     1    1    2 1   
     2    1    4 1   
     3    1    5 1   
     4    1    6 1   
     5    2    3 2   
     6    2    7 1   
     7    7    8 1   
     8    7   15 1   
     9    8    9 1   
    10    8   11 1   
    11    8   16 1   
    12    9   10 2   
    13    9   19 1   
    14   11   12 1   
    15   11   17 1   
    16   11   18 1   
    17   12   13 1   
    18   12   14 1   
    19   19   20 1   
    20   19   28 1   
    21   20   21 1   
    22   20   23 1   
    23   20   29 1   
    24   21   22 2   
    25   21   41 1   
    26   23   24 1   
    27   23   30 1   
    28   23   31 1   
    29   24   25 1   
    30   24   32 1   
    31   24   33 1   
    32   25   26 1   
    33   25   34 1   
    34   25   35 1   
    35   26   27 1   
    36   26   36 1   
    37   26   37 1   
    38   27   38 1   
    39   27   39 1   
    40   27   40 1   
    41   41   42 1   
    42   41   49 1   
    43   42   43 1   
    44   42   45 1   
    45   42   50 1   
    46   43   44 2   
    47   43   53 1   
    48   45   46 1   
    49   45   51 1   
    50   45   52 1   
    51   46   47 1   
    52   46   48 1   
    53   53   54 1   
    54   53   57 1   
    55   54   55 1   
    56   54   58 1   
    57   54   59 1   
    58   55   56 2   
    59   55   60 1   
    60   60   61 1   
    61   60   68 1   
    62   61   62 1   
    63   61   64 1   
    64   61   69 1   
    65   62   63 2   
    66   62   74 1   
    67   64   65 1   
    68   64   70 1   
    69   64   71 1   
    70   65   66 1   
    71   65   67 2   
    72   66   72 1   
    73   66   73 1   
    74   74   75 1   
    75   74   78 1   
    76   75   76 1   
    77   75   79 1   
    78   75   80 1   
    79   76   77 2   
    80   76   81 1   
    81   81   82 1   
    82   81   93 1   
    83   82   83 1   
    84   82   85 1   
    85   82   94 1   
    86   83   84 2   
    87   83  102 1   
    88   85   86 1   
    89   85   95 1   
    90   85   96 1   
    91   86   87 ar  
    92   86   88 ar  
    93   87   89 ar  
    94   87   97 1   
    95   88   90 ar  
    96   88   98 1   
    97   89   91 ar  
    98   89   99 1   
    99   90   91 ar  
   100   90  100 1   
   101   91   92 1   
   102   92  101 1   
   103  102  103 1   
   104  102  110 1   
   105  103  104 1   
   106  103  106 1   
   107  103  111 1   
   108  104  105 2   
   109  104  121 1   
   110  106  107 1   
   111  106  108 1   
   112  106  112 1   
   113  107  109 1   
   114  107  113 1   
   115  107  114 1   
   116  108  115 1   
   117  108  116 1   
   118  108  117 1   
   119  109  118 1   
   120  109  119 1   
   121  109  120 1   
   122  121  122 1   
   123  121  127 1   
   124  122  123 1   
   125  122  125 1   
   126  122  128 1   
   127  123  124 2   
   128  123  132 1   
   129  125  126 1   
   130  125  129 1   
   131  125  130 1   
   132  126  131 1   
   133  132  133 1   
   134  132  137 1   
   135  133  134 1   
   136  133  136 1   
   137  133  138 1   
   138  134  135 2   
   139  134  142 1   
   140  136  139 1   
   141  136  140 1   
   142  136  141 1   
   143  142  143 1   
   144  142  147 1   
   145  143  144 1   
   146  143  146 1   
   147  143  148 1   
   148  144  145 2   
   149  144  152 1   
   150  146  149 1   
   151  146  150 1   
   152  146  151 1   
   153  152  153 1   
   154  152  161 1   
   155  153  154 1   
   156  153  156 1   
   157  153  162 1   
   158  154  155 2   
   159  154  167 1   
   160  156  157 1   
   161  156  163 1   
   162  156  164 1   
   163  157  158 1   
   164  157  165 1   
   165  157  166 1   
   166  158  159 1   
   167  158  160 1   
   168  167  168 1   
   169  167  172 1   
   170  168  169 1   
   171  168  170 1   
   172  168  171 1   
   173  174  175 1   
   174  174  176 1   
   175  177  178 1   
   176  177  179 1   
@<TRIPOS>SUBSTRUCTURE
     1 MOL         1 TEMP              0 ****  ****    0 ROOT
