@<TRIPOS>MOLECULE
MOL
  189   185     1     0     0
SMALL
resp


@<TRIPOS>ATOM
      1 C1          1.1790   -3.0860    6.1010 c3        1 MOL     -0.389929
      2 C2          1.3460   -2.7640    4.5720 c         1 MOL      0.821249
      3 O1          0.4920   -3.1050    3.8050 o         1 MOL     -0.599297
      4 H1          0.5580   -2.3210    6.5670 hc        1 MOL      0.088413
      5 H2          0.7030   -4.0600    6.2180 hc        1 MOL      0.088413
      6 H3          2.1580   -3.1000    6.5790 hc        1 MOL      0.088413
      7 N1          2.5040   -2.1970    4.1270 n         1 MOL     -0.698843
      8 C3          2.7400   -1.9280    2.7710 c3        1 MOL      0.149052
      9 C4          3.0550   -3.1440    1.9810 c         1 MOL      0.610209
     10 O2          4.1500   -3.6950    2.2090 o         1 MOL     -0.583344
     11 C5          3.8380   -0.8050    2.7200 c3        1 MOL     -0.164308
     12 C6          4.3510   -0.5300    1.3330 c         1 MOL      0.656374
     13 O3          3.7260   -0.8240    0.2630 o         1 MOL     -0.711909
     14 O4          5.3990    0.1410    1.3770 o         1 MOL     -0.711909
     15 H4          3.1980   -1.8850    4.7910 hn        1 MOL      0.326900
     16 H5          1.8290   -1.5070    2.3480 h1        1 MOL      0.038571
     17 H6          4.6290   -1.1770    3.3780 hc        1 MOL      0.055876
     18 H7          3.3360    0.0150    3.2370 hc        1 MOL      0.055876
     19 N2          2.2790   -3.5730    0.9740 n         1 MOL     -0.489380
     20 C7          2.3360   -4.9210    0.4310 c3        1 MOL     -0.039181
     21 C8          3.3820   -5.0900   -0.6200 c         1 MOL      0.490413
     22 O5          3.8600   -6.2160   -0.7020 o         1 MOL     -0.590600
     23 C9          0.9460   -5.4120   -0.0390 c3        1 MOL      0.118964
     24 C10        -0.2070   -5.1100    0.9910 c3        1 MOL      0.049414
     25 C11         1.0000   -6.9380   -0.4700 c3        1 MOL     -0.239310
     26 C12        -1.5680   -5.5740    0.4850 c3        1 MOL     -0.015390
     27 H8          1.4850   -2.9910    0.7280 hn        1 MOL      0.323453
     28 H9          2.6350   -5.6030    1.2310 h1        1 MOL      0.092771
     29 H10         0.6220   -4.8750   -0.9380 hc        1 MOL      0.036189
     30 H11        -0.2490   -4.0310    1.1210 hc        1 MOL      0.001417
     31 H12        -0.0530   -5.6720    1.9080 hc        1 MOL      0.001417
     32 H13         1.6920   -7.1670   -1.2870 hc        1 MOL      0.047251
     33 H14         1.2150   -7.5370    0.4080 hc        1 MOL      0.047251
     34 H15         0.0310   -7.2650   -0.8530 hc        1 MOL      0.047251
     35 H16        -1.5740   -6.6400    0.2920 hc        1 MOL     -0.006949
     36 H17        -2.3330   -5.4190    1.2430 hc        1 MOL     -0.006949
     37 H18        -1.8100   -5.1600   -0.4950 hc        1 MOL     -0.006949
     38 N3          3.7220   -4.0570   -1.3490 n         1 MOL     -0.217024
     39 C13         4.7720   -3.9510   -2.3670 c3        1 MOL      0.105577
     40 C14         5.9880   -3.1590   -1.8840 c         1 MOL      0.350072
     41 O6          7.1270   -3.3780   -2.4200 o         1 MOL     -0.555865
     42 C15         4.2090   -3.3870   -3.6820 c3        1 MOL     -0.170459
     43 C16         3.7250   -1.9320   -3.7050 c         1 MOL      0.671823
     44 O7          4.5110   -1.0720   -4.1920 o         1 MOL     -0.674855
     45 O8          2.6540   -1.6310   -3.0810 o         1 MOL     -0.674855
     46 H19         3.1790   -3.2100   -1.2750 hn        1 MOL      0.157107
     47 H20         5.0990   -4.9570   -2.6540 h1        1 MOL      0.065047
     48 H21         3.3920   -4.0660   -3.9110 hc        1 MOL      0.029549
     49 H22         4.9140   -3.5210   -4.5040 hc        1 MOL      0.029549
     50 N4          5.8700   -2.5700   -0.7100 n         1 MOL     -0.039157
     51 C17         7.0880   -2.1040    0.0580 c3        1 MOL     -0.396320
     52 C18         7.8160   -0.8740   -0.5150 c         1 MOL      0.577850
     53 O9          8.9870   -0.6280   -0.1630 o         1 MOL     -0.605736
     54 H23         4.9940   -2.1970   -0.4000 hn        1 MOL      0.109249
     55 H24         7.7940   -2.9310    0.0760 h1        1 MOL      0.162600
     56 H25         6.8000   -1.8300    1.0750 h1        1 MOL      0.162600
     57 N5          7.0630   -0.0810   -1.2910 n         1 MOL     -0.191399
     58 C19         7.5930    1.2260   -1.7430 c3        1 MOL     -0.271279
     59 C20         7.6630    2.2850   -0.6430 c         1 MOL      0.539871
     60 O10         8.2740    3.3450   -0.8410 o         1 MOL     -0.578556
     61 C21         6.6640    1.7900   -2.8330 c3        1 MOL     -0.042225
     62 C22         5.2140    2.0100   -2.3790 c         1 MOL      0.479794
     63 O11         4.7730    3.1800   -2.4820 o         1 MOL     -0.668434
     64 O12         4.4300    1.1620   -1.9510 o         1 MOL     -0.668434
     65 H26         6.0770   -0.2560   -1.4460 hn        1 MOL      0.245413
     66 H27         8.5690    1.0110   -2.1690 h1        1 MOL      0.142295
     67 H28         6.7930    1.1940   -3.7360 hc        1 MOL      0.057746
     68 H29         7.0440    2.7840   -3.0500 hc        1 MOL      0.057746
     69 N6          7.2150    2.0090    0.5670 n         1 MOL     -0.254044
     70 C23         7.1410    2.8700    1.7980 c3        1 MOL     -0.181871
     71 C24         5.8960    3.6300    2.0310 c         1 MOL      0.653368
     72 O13         5.9610    4.5640    2.8640 o         1 MOL     -0.614390
     73 H30         6.7680    1.1160    0.7340 hn        1 MOL      0.284613
     74 H31         7.9780    3.5690    1.8590 h1        1 MOL      0.093978
     75 H32         7.2610    2.1620    2.6150 h1        1 MOL      0.093978
     76 N7          4.7340    3.1970    1.5200 n         1 MOL     -0.486026
     77 C25         3.4890    3.8880    1.6790 c3        1 MOL     -0.114248
     78 C26         2.2690    2.9180    1.5790 c         1 MOL      0.759501
     79 O14         2.2150    2.0380    0.7300 o         1 MOL     -0.704464
     80 C27         3.3100    4.9910    0.6070 c3        1 MOL      0.121267
     81 C28         2.1800    6.0680    0.9130 c3        1 MOL     -0.359769
     82 C29         1.9580    7.1040   -0.2160 c         1 MOL      0.728287
     83 N8          1.6810    8.3530    0.1170 n         1 MOL     -0.807003
     84 O15         1.9690    6.7890   -1.3940 o         1 MOL     -0.562515
     85 H33         4.7750    2.5160    0.7770 hn        1 MOL      0.431064
     86 H34         3.4600    4.3690    2.6540 h1        1 MOL      0.070085
     87 H35         3.1400    4.5310   -0.3710 hc        1 MOL      0.024733
     88 H36         4.2430    5.5430    0.4660 hc        1 MOL      0.024733
     89 H37         2.4040    6.6440    1.8090 hc        1 MOL      0.072159
     90 H38         1.2590    5.5260    1.1350 hc        1 MOL      0.072159
     91 H39         1.7040    8.5690    1.1020 hn        1 MOL      0.352872
     92 H40         1.7500    9.0560   -0.6070 hn        1 MOL      0.352872
     93 N9          1.2400    3.0550    2.4890 n         1 MOL     -0.514870
     94 C30         0.0250    2.2200    2.3860 c3        1 MOL      0.026692
     95 C31        -0.9550    2.8120    1.3550 c         1 MOL      0.530566
     96 O16        -1.1790    4.0390    1.4590 o         1 MOL     -0.623978
     97 C32        -0.4660    1.9680    3.8260 c3        1 MOL      0.290460
     98 C33        -1.9200    1.4230    3.9310 c3        1 MOL     -0.198676
     99 C34         0.4580    1.1560    4.6820 c3        1 MOL     -0.198676
    100 H41         1.2540    3.8860    3.0620 hn        1 MOL      0.277151
    101 H42         0.1950    1.2160    1.9980 h1        1 MOL      0.167400
    102 H43        -0.3930    2.9460    4.3000 hc        1 MOL     -0.046636
    103 H44        -2.1080    0.3960    3.6080 hc        1 MOL      0.023720
    104 H45        -2.2350    1.4660    4.9750 hc        1 MOL      0.023720
    105 H46        -2.5690    2.0770    3.3570 hc        1 MOL      0.023720
    106 H47         0.4360    0.0990    4.4090 hc        1 MOL      0.023720
    107 H48         1.4190    1.6330    4.5100 hc        1 MOL      0.023720
    108 H49         0.1890    1.3310    5.7160 hc        1 MOL      0.023720
    109 N10        -1.6400    2.0570    0.5390 n         1 MOL     -0.360234
    110 C35        -2.8880    2.4300   -0.1600 c3        1 MOL      0.321452
    111 C36        -4.1860    1.8690    0.4770 c         1 MOL      0.174936
    112 O17        -4.0920    0.9410    1.2710 o         1 MOL     -0.253009
    113 C37        -2.7780    2.0150   -1.6880 c3        1 MOL     -0.167570
    114 C38        -3.9730    2.4750   -2.5100 c         1 MOL      0.639071
    115 N11        -4.0240    3.7270   -2.7130 n         1 MOL     -0.736608
    116 O18        -4.8690    1.8130   -2.8230 o         1 MOL     -0.488200
    117 H50        -1.3620    1.0940    0.5010 hn        1 MOL      0.188889
    118 H51        -2.9180    3.5190   -0.2200 h1        1 MOL     -0.010361
    119 H52        -2.7970    0.9340   -1.8120 hc        1 MOL      0.062502
    120 H53        -1.8870    2.4480   -2.1580 hc        1 MOL      0.062502
    121 H54        -3.3190    4.3820   -2.4230 hn        1 MOL      0.337198
    122 H55        -4.7790    4.0430   -3.2910 hn        1 MOL      0.337198
    123 N12        -5.3680    2.4360    0.1430 n         1 MOL     -0.296548
    124 C39        -6.6690    1.8930    0.5200 c3        1 MOL      0.204661
    125 C40        -6.7380    0.3520    0.3800 c         1 MOL      0.426856
    126 O19        -6.9470   -0.3280    1.3970 o         1 MOL     -0.538178
    127 C41        -7.7390    2.4730   -0.3780 c3        1 MOL     -0.219968
    128 C42        -9.1500    1.9670   -0.2670 ca        1 MOL      0.097219
    129 C43        -9.9270    2.2910    0.8700 ca        1 MOL     -0.188606
    130 C44        -9.7800    1.2320   -1.3090 ca        1 MOL     -0.188606
    131 C45       -11.1860    1.7620    1.0690 ca        1 MOL     -0.243782
    132 C46       -11.1090    0.7410   -1.1120 ca        1 MOL     -0.243782
    133 C47       -11.7910    0.9790    0.0770 ca        1 MOL      0.351414
    134 O20       -12.9850    0.4510    0.3520 oh        1 MOL     -0.542424
    135 H56        -5.3370    3.2980   -0.3750 hn        1 MOL      0.195224
    136 H57        -6.7850    2.1600    1.5790 h1        1 MOL      0.018641
    137 H58        -7.3900    2.3540   -1.4030 hc        1 MOL      0.067408
    138 H59        -7.7480    3.5220   -0.0660 hc        1 MOL      0.067408
    139 H60        -9.4160    2.8690    1.6250 ha        1 MOL      0.138760
    140 H61        -9.2550    1.0650   -2.2350 ha        1 MOL      0.138760
    141 H62       -11.7500    1.8710    1.9800 ha        1 MOL      0.136790
    142 H63       -11.5860    0.0760   -1.8090 ha        1 MOL      0.136790
    143 H64       -13.3430   -0.1710   -0.2850 ho        1 MOL      0.396633
    144 N13        -6.5010   -0.2220   -0.7950 n         1 MOL     -0.098961
    145 C48        -6.5340   -1.7130   -0.9900 c3        1 MOL     -0.202334
    146 C49        -5.5710   -2.5000   -0.0400 c         1 MOL      0.375996
    147 O21        -5.6570   -3.7180    0.1360 o         1 MOL     -0.514145
    148 C50        -6.1190   -2.0710   -2.3740 c3        1 MOL      0.277066
    149 C51        -7.1320   -1.4020   -3.4440 c3        1 MOL     -0.371630
    150 C52        -6.6010   -1.4600   -4.8560 c         1 MOL      0.725479
    151 O22        -7.4260   -1.6550   -5.8450 o         1 MOL     -0.738208
    152 O23        -5.4080   -1.2170   -5.1750 o         1 MOL     -0.738208
    153 H65        -6.0080    0.3010   -1.5090 hn        1 MOL      0.132429
    154 H66        -7.5310   -2.1160   -0.8070 h1        1 MOL      0.114360
    155 H67        -6.1150   -3.1570   -2.5270 hc        1 MOL     -0.022773
    156 H68        -5.1010   -1.7250   -2.5490 hc        1 MOL     -0.022773
    157 H69        -7.4050   -0.3610   -3.2820 hc        1 MOL      0.055181
    158 H70        -8.0390   -2.0140   -3.4860 hc        1 MOL      0.055181
    159 N14        -4.4880   -1.8280    0.4880 n         1 MOL     -0.200973
    160 C53        -3.5130   -2.5780    1.3310 c3        1 MOL      0.000484
    161 C54        -4.0390   -2.5110    2.7830 c         1 MOL      0.418432
    162 O24        -3.7980   -3.4200    3.6190 o         1 MOL     -0.549219
    163 C55        -2.1100   -1.9030    1.2780 c3        1 MOL      0.043688
    164 C56        -1.5510   -1.8020   -0.1240 c3        1 MOL     -0.112709
    165 C57        -0.1310   -1.2440   -0.2210 c         1 MOL      0.787410
    166 O25         0.8190   -1.8390   -0.7770 o         1 MOL     -0.798889
    167 O26        -0.0250   -0.0480    0.0550 o         1 MOL     -0.798889
    168 H71        -4.2210   -0.8600    0.3420 hn        1 MOL      0.185865
    169 H72        -3.4730   -3.6090    0.9720 h1        1 MOL      0.102582
    170 H73        -1.3860   -2.4010    1.9260 hc        1 MOL      0.003079
    171 H74        -2.1800   -0.8550    1.5750 hc        1 MOL      0.003079
    172 H75        -2.2090   -1.2690   -0.8050 hc        1 MOL      0.010201
    173 H76        -1.6140   -2.8000   -0.5580 hc        1 MOL      0.010201
    174 N15        -4.8000   -1.4130    3.1660 n         1 MOL     -0.026041
    175 C58        -5.5820   -1.3080    4.3930 c3        1 MOL     -0.245575
    176 H77        -4.9250   -1.0370    5.2190 h1        1 MOL      0.083499
    177 H78        -6.3470   -0.5410    4.2720 h1        1 MOL      0.083499
    178 H79        -6.0560   -2.2650    4.6050 h1        1 MOL      0.083499
    179 H80        -4.8280   -0.6600    2.4980 hn        1 MOL      0.050249
    180 Ca1         2.1300    0.3400   -1.4250 Ca        1 MOL      1.840493
    181 O27         0.0320    0.6400   -2.9680 oh        1 MOL     -0.849217
    182 H81         0.0360    0.5820   -3.9240 ho        1 MOL      0.408553
    183 H82        -0.8640    0.4190   -2.7190 ho        1 MOL      0.408553
    184 O28         2.7440    0.9130   -4.3460 oh        1 MOL     -0.849217
    185 H83         3.3690    0.1980   -4.2280 ho        1 MOL      0.408553
    186 H84         3.2720    1.7110   -4.2510 ho        1 MOL      0.408553
    187 O29         2.1970    2.8790   -2.1300 oh        1 MOL     -0.849217
    188 H85         3.1200    3.1060   -2.0870 ho        1 MOL      0.408553
    189 H86         1.7450    3.7110   -2.2710 ho        1 MOL      0.408553
@<TRIPOS>BOND
     1    1    2 1   
     2    1    4 1   
     3    1    5 1   
     4    1    6 1   
     5    2    3 2   
     6    2    7 1   
     7    7    8 1   
     8    7   15 1   
     9    8    9 1   
    10    8   11 1   
    11    8   16 1   
    12    9   10 2   
    13    9   19 1   
    14   11   12 1   
    15   11   17 1   
    16   11   18 1   
    17   12   13 1   
    18   12   14 1   
    19   19   20 1   
    20   19   27 1   
    21   20   21 1   
    22   20   23 1   
    23   20   28 1   
    24   21   22 2   
    25   21   38 1   
    26   23   24 1   
    27   23   25 1   
    28   23   29 1   
    29   24   26 1   
    30   24   30 1   
    31   24   31 1   
    32   25   32 1   
    33   25   33 1   
    34   25   34 1   
    35   26   35 1   
    36   26   36 1   
    37   26   37 1   
    38   38   39 1   
    39   38   46 1   
    40   39   40 1   
    41   39   42 1   
    42   39   47 1   
    43   40   41 2   
    44   40   50 1   
    45   42   43 1   
    46   42   48 1   
    47   42   49 1   
    48   43   44 1   
    49   43   45 1   
    50   50   51 1   
    51   50   54 1   
    52   51   52 1   
    53   51   55 1   
    54   51   56 1   
    55   52   53 2   
    56   52   57 1   
    57   57   58 1   
    58   57   65 1   
    59   58   59 1   
    60   58   61 1   
    61   58   66 1   
    62   59   60 2   
    63   59   69 1   
    64   61   62 1   
    65   61   67 1   
    66   61   68 1   
    67   62   63 1   
    68   62   64 1   
    69   69   70 1   
    70   69   73 1   
    71   70   71 1   
    72   70   74 1   
    73   70   75 1   
    74   71   72 2   
    75   71   76 1   
    76   76   77 1   
    77   76   85 1   
    78   77   78 1   
    79   77   80 1   
    80   77   86 1   
    81   78   79 2   
    82   78   93 1   
    83   80   81 1   
    84   80   87 1   
    85   80   88 1   
    86   81   82 1   
    87   81   89 1   
    88   81   90 1   
    89   82   83 1   
    90   82   84 2   
    91   83   91 1   
    92   83   92 1   
    93   93   94 1   
    94   93  100 1   
    95   94   95 1   
    96   94   97 1   
    97   94  101 1   
    98   95   96 2   
    99   95  109 1   
   100   97   98 1   
   101   97   99 1   
   102   97  102 1   
   103   98  103 1   
   104   98  104 1   
   105   98  105 1   
   106   99  106 1   
   107   99  107 1   
   108   99  108 1   
   109  109  110 1   
   110  109  117 1   
   111  110  111 1   
   112  110  113 1   
   113  110  118 1   
   114  111  112 2   
   115  111  123 1   
   116  113  114 1   
   117  113  119 1   
   118  113  120 1   
   119  114  115 1   
   120  114  116 2   
   121  115  121 1   
   122  115  122 1   
   123  123  124 1   
   124  123  135 1   
   125  124  125 1   
   126  124  127 1   
   127  124  136 1   
   128  125  126 2   
   129  125  144 1   
   130  127  128 1   
   131  127  137 1   
   132  127  138 1   
   133  128  129 ar  
   134  128  130 ar  
   135  129  131 ar  
   136  129  139 1   
   137  130  132 ar  
   138  130  140 1   
   139  131  133 ar  
   140  131  141 1   
   141  132  133 ar  
   142  132  142 1   
   143  133  134 1   
   144  134  143 1   
   145  144  145 1   
   146  144  153 1   
   147  145  146 1   
   148  145  148 1   
   149  145  154 1   
   150  146  147 2   
   151  146  159 1   
   152  148  149 1   
   153  148  155 1   
   154  148  156 1   
   155  149  150 1   
   156  149  157 1   
   157  149  158 1   
   158  150  151 1   
   159  150  152 1   
   160  159  160 1   
   161  159  168 1   
   162  160  161 1   
   163  160  163 1   
   164  160  169 1   
   165  161  162 2   
   166  161  174 1   
   167  163  164 1   
   168  163  170 1   
   169  163  171 1   
   170  164  165 1   
   171  164  172 1   
   172  164  173 1   
   173  165  166 1   
   174  165  167 1   
   175  174  175 1   
   176  174  179 1   
   177  175  176 1   
   178  175  177 1   
   179  175  178 1   
   180  181  182 1   
   181  181  183 1   
   182  184  185 1   
   183  184  186 1   
   184  187  188 1   
   185  187  189 1   
@<TRIPOS>SUBSTRUCTURE
     1 MOL         1 TEMP              0 ****  ****    0 ROOT
