@<TRIPOS>MOLECULE
MOL
  178   175     1     0     0
SMALL
resp


@<TRIPOS>ATOM
      1 C1         -0.4910    4.5910    5.3130 c3        1 MOL     -0.323176
      2 C2         -0.7990    3.9860    3.9390 c         1 MOL      0.773642
      3 O1         -0.0500    4.2100    2.9930 o         1 MOL     -0.608088
      4 H1         -1.4240    4.8230    5.8250 hc        1 MOL      0.073746
      5 H2          0.0800    3.8770    5.9060 hc        1 MOL      0.073746
      6 H3          0.0900    5.5060    5.1860 hc        1 MOL      0.073746
      7 N1         -1.9020    3.2210    3.8020 n         1 MOL     -0.621805
      8 C3         -2.3660    2.6430    2.5740 c3        1 MOL      0.169152
      9 C4         -2.6620    3.6390    1.5040 c         1 MOL      0.507385
     10 O2         -3.4470    4.5560    1.6660 o         1 MOL     -0.587017
     11 C5         -3.4980    1.7120    2.9300 c3        1 MOL     -0.081226
     12 C6         -4.0870    0.9790    1.7560 c         1 MOL      0.709553
     13 O3         -4.9990    0.1740    1.9890 o         1 MOL     -0.705271
     14 O4         -3.7260    1.1970    0.5960 o         1 MOL     -0.705271
     15 H4         -2.3990    3.0180    4.6680 hn        1 MOL      0.294541
     16 H5         -1.5530    1.9580    2.3380 h1        1 MOL      0.034842
     17 H6         -4.2990    2.1870    3.4980 hc        1 MOL      0.023987
     18 H7         -3.1490    0.9440    3.6300 hc        1 MOL      0.023987
     19 N2         -1.9310    3.5380    0.3710 n         1 MOL     -0.032725
     20 C7         -2.0190    4.5640   -0.6820 c3        1 MOL     -0.072078
     21 C8         -3.2350    4.4930   -1.5870 c         1 MOL      0.543515
     22 O5         -3.4750    5.4930   -2.2460 o         1 MOL     -0.587581
     23 C9         -0.7280    4.5130   -1.5640 c3        1 MOL     -0.083239
     24 H8         -1.1850    2.8630    0.3880 hn        1 MOL     -0.003485
     25 H9         -2.0560    5.5400   -0.2020 h1        1 MOL      0.086371
     26 H10         0.2130    4.6580   -1.0350 hc        1 MOL      0.037055
     27 H11        -0.6890    3.5120   -1.9980 hc        1 MOL      0.037055
     28 H12        -0.6780    5.2580   -2.3630 hc        1 MOL      0.037055
     29 N3         -4.0750    3.4720   -1.4750 n         1 MOL     -0.246447
     30 C10        -5.3680    3.4470   -2.1250 c3        1 MOL      0.055951
     31 C11        -6.5000    2.8890   -1.2600 c         1 MOL      0.358254
     32 O6         -7.6530    2.7450   -1.6650 o         1 MOL     -0.514309
     33 C12        -5.3390    2.6440   -3.4550 c3        1 MOL     -0.245788
     34 C13        -4.7580    1.2290   -3.4660 c         1 MOL      0.914060
     35 O7         -4.5830    0.5530   -4.5200 o         1 MOL     -0.782893
     36 O8         -4.5170    0.6000   -2.4400 o         1 MOL     -0.782893
     37 H13        -3.8630    2.8070   -0.7470 hn        1 MOL      0.100377
     38 H14        -5.6190    4.4590   -2.4440 h1        1 MOL      0.104406
     39 H15        -4.7810    3.1910   -4.2220 hc        1 MOL      0.051307
     40 H16        -6.3640    2.4800   -3.7820 hc        1 MOL      0.051307
     41 N4         -6.3040    2.4770    0.0330 n         1 MOL     -0.236825
     42 C14        -7.4490    2.0810    0.8820 c3        1 MOL     -0.105743
     43 C15        -7.8290    0.6150    0.7880 c         1 MOL      0.450175
     44 O9         -8.8900    0.2050    1.4020 o         1 MOL     -0.600922
     45 H17        -5.3530    2.4880    0.3730 hn        1 MOL      0.190097
     46 H18        -8.3570    2.6110    0.6170 h1        1 MOL      0.094392
     47 H19        -7.2410    2.3850    1.9090 h1        1 MOL      0.094392
     48 N5         -7.1820   -0.1220   -0.0170 n         1 MOL     -0.215439
     49 C16        -7.5970   -1.5300   -0.3210 c3        1 MOL     -0.019996
     50 C17        -7.2940   -2.6010    0.6880 c         1 MOL      0.466545
     51 O10        -8.0100   -3.5680    0.7980 o         1 MOL     -0.549597
     52 C18        -7.0390   -1.8850   -1.7170 c3        1 MOL     -0.330038
     53 C19        -5.5820   -2.3410   -1.6850 c         1 MOL      0.729713
     54 N6         -5.1360   -3.2140   -2.5450 n         1 MOL     -0.680955
     55 O11        -4.7440   -1.9050   -0.8740 o         1 MOL     -0.670782
     56 H20        -6.3430    0.2240   -0.4740 hn        1 MOL      0.311670
     57 H21        -8.6850   -1.5490   -0.4140 h1        1 MOL      0.119352
     58 H22        -7.1130   -1.0500   -2.4090 hc        1 MOL      0.113001
     59 H23        -7.5930   -2.7340   -2.1110 hc        1 MOL      0.113001
     60 H24        -5.7290   -3.5700   -3.2850 hn        1 MOL      0.324899
     61 H25        -4.1870   -3.5480   -2.4980 hn        1 MOL      0.324899
     62 N7         -6.3080   -2.3720    1.6150 n         1 MOL     -0.188567
     63 C20        -5.9950   -3.3550    2.6110 c3        1 MOL     -0.136972
     64 C21        -4.6390   -4.0630    2.3890 c         1 MOL      0.448916
     65 O12        -4.2560   -4.9520    3.1370 o         1 MOL     -0.593537
     66 H26        -5.8840   -1.4590    1.5820 hn        1 MOL      0.238892
     67 H27        -6.7490   -4.1370    2.7060 h1        1 MOL      0.094220
     68 H28        -5.9630   -2.8420    3.5710 h1        1 MOL      0.094220
     69 N8         -3.9340   -3.6980    1.3390 n         1 MOL     -0.032879
     70 C22        -2.5530   -4.1890    1.0600 c3        1 MOL      0.046195
     71 C23        -1.5360   -3.0580    1.2340 c         1 MOL      0.488304
     72 O13        -1.8810   -1.8550    1.1180 o         1 MOL     -0.622268
     73 C24        -2.3060   -4.8000   -0.3060 c3        1 MOL      0.282147
     74 C25        -3.1730   -5.9930   -0.6370 c3        1 MOL     -0.178535
     75 O14        -2.5640   -3.8880   -1.3260 oh        1 MOL     -0.613158
     76 H29        -4.2850   -2.9760    0.7420 hn        1 MOL      0.069696
     77 H30        -2.2630   -5.0160    1.7060 h1        1 MOL      0.049450
     78 H31        -1.3080   -5.2230   -0.2350 h1        1 MOL      0.018305
     79 H32        -2.0390   -4.0790   -2.0990 ho        1 MOL      0.425949
     80 H33        -4.1860   -5.8140   -0.2860 hc        1 MOL      0.034497
     81 H34        -3.1670   -6.1640   -1.7200 hc        1 MOL      0.034497
     82 H35        -2.8110   -6.9040   -0.1620 hc        1 MOL      0.034497
     83 N9         -0.2330   -3.4100    1.2230 n         1 MOL     -0.466609
     84 C26         0.8370   -2.4890    1.1960 c3        1 MOL      0.002766
     85 C27         2.0110   -3.0300    0.3130 c         1 MOL      0.395132
     86 O15         2.3110   -4.2090    0.1670 o         1 MOL     -0.536574
     87 C28         1.4750   -2.1020    2.5410 c3        1 MOL      0.155402
     88 C29         1.7210   -3.3290    3.4300 c3        1 MOL      0.130867
     89 C30         0.5100   -1.1540    3.2940 c3        1 MOL     -0.613210
     90 C31         2.6620   -3.1300    4.5800 c3        1 MOL     -0.203428
     91 H36         0.0320   -4.3830    1.2090 hn        1 MOL      0.285935
     92 H37         0.4810   -1.5810    0.7080 h1        1 MOL      0.024225
     93 H38         2.4650   -1.7310    2.3130 hc        1 MOL     -0.043865
     94 H39         2.1300   -4.1350    2.8160 hc        1 MOL     -0.007430
     95 H40         0.8080   -3.8130    3.7560 hc        1 MOL     -0.007430
     96 H41         0.2500   -0.2220    2.7980 hc        1 MOL      0.173438
     97 H42        -0.4070   -1.6780    3.5620 hc        1 MOL      0.173438
     98 H43         0.8970   -0.8510    4.2670 hc        1 MOL      0.173438
     99 H44         3.6820   -3.2140    4.1970 hc        1 MOL      0.037890
    100 H45         2.5560   -2.1820    5.1050 hc        1 MOL      0.037890
    101 H46         2.6060   -3.8600    5.3970 hc        1 MOL      0.037890
    102 N10         2.5340   -2.0470   -0.4550 n         1 MOL     -0.188516
    103 C32         3.6030   -2.2170   -1.3820 c3        1 MOL      0.170259
    104 C33         4.8310   -1.3450   -0.8310 c         1 MOL      0.315210
    105 O16         4.6070   -0.6060    0.1250 o         1 MOL     -0.364570
    106 C34         3.1560   -1.8640   -2.8230 c3        1 MOL     -0.182241
    107 C35         4.0670   -2.2970   -3.9650 c         1 MOL      0.664188
    108 O17         5.2600   -2.5820   -3.8260 o         1 MOL     -0.689421
    109 O18         3.5180   -2.1600   -5.0770 o         1 MOL     -0.689421
    110 H47         2.2270   -1.1140   -0.2550 hn        1 MOL      0.220656
    111 H48         3.9830   -3.2350   -1.3350 h1        1 MOL      0.045006
    112 H49         2.9980   -0.7910   -2.8370 hc        1 MOL      0.022442
    113 H50         2.2040   -2.3630   -3.0020 hc        1 MOL      0.022442
    114 N11         6.0030   -1.4760   -1.4510 n         1 MOL     -0.599335
    115 C36         7.2250   -0.9560   -0.8080 c3        1 MOL      0.496267
    116 C37         7.2360    0.5350   -0.5530 c         1 MOL      0.156072
    117 O19         7.7400    0.8470    0.5420 o         1 MOL     -0.481761
    118 C38         8.5150   -1.4900   -1.4190 c3        1 MOL     -0.214276
    119 C39         9.6540   -1.4410   -0.4650 ca        1 MOL      0.145959
    120 C40         9.6400   -2.2940    0.6560 ca        1 MOL     -0.255895
    121 C41        10.7760   -0.5800   -0.6940 ca        1 MOL     -0.255895
    122 C42        10.7660   -2.2970    1.5840 ca        1 MOL     -0.012371
    123 C43        11.8630   -0.5600    0.2270 ca        1 MOL     -0.012371
    124 C44        11.9220   -1.4690    1.3690 ca        1 MOL     -0.246389
    125 H51         6.0240   -2.0140   -2.3110 hn        1 MOL      0.284636
    126 H52         7.1200   -1.4550    0.1530 h1        1 MOL      0.036852
    127 H53         8.7140   -1.0940   -2.4110 hc        1 MOL      0.078009
    128 H54         8.3550   -2.5480   -1.6230 hc        1 MOL      0.078009
    129 H55         8.8030   -2.9360    0.8910 ha        1 MOL      0.139290
    130 H56        10.8260    0.1300   -1.5170 ha        1 MOL      0.139290
    131 H57        10.6700   -2.9450    2.4370 ha        1 MOL      0.086733
    132 H58        12.7010    0.0790    0.0020 ha        1 MOL      0.086733
    133 H59        12.7520   -1.5650    2.0480 ha        1 MOL      0.133929
    134 N12         6.8230    1.4320   -1.4110 n         1 MOL      0.054547
    135 C45         6.7500    2.8650   -1.0330 c3        1 MOL     -0.004544
    136 C46         5.7100    3.1120    0.1200 c         1 MOL      0.336002
    137 O20         5.8760    4.0640    0.8460 o         1 MOL     -0.512013
    138 C47         6.3950    3.6050   -2.3220 c3        1 MOL      0.037292
    139 C48         6.9880    2.7610   -3.4450 c3        1 MOL     -0.233788
    140 C49         6.6150    1.3610   -2.8720 c3        1 MOL     -0.109758
    141 H60         7.7070    3.2280   -0.6670 h1        1 MOL      0.058629
    142 H61         5.3060    3.6660   -2.4080 hc        1 MOL      0.025930
    143 H62         6.6210    4.6690   -2.3100 hc        1 MOL      0.025930
    144 H63         6.4890    2.9810   -4.3860 hc        1 MOL      0.086849
    145 H64         8.0810    2.7850   -3.4690 hc        1 MOL      0.086849
    146 H65         5.5370    1.2570   -3.0610 h1        1 MOL      0.101757
    147 H66         7.2490    0.6260   -3.3510 h1        1 MOL      0.101757
    148 N13         4.6270    2.3930    0.2740 n         1 MOL     -0.178053
    149 C50         3.7290    2.4980    1.4490 c3        1 MOL     -0.120740
    150 C51         4.3820    1.9250    2.7440 c         1 MOL      0.518626
    151 O21         4.1840    2.3560    3.8450 o         1 MOL     -0.563105
    152 C52         2.3600    1.7700    1.0820 c3        1 MOL      0.212808
    153 C53         1.5020    2.2710   -0.0940 c3        1 MOL     -0.279286
    154 C54         0.5220    1.2190   -0.5600 c         1 MOL      0.791497
    155 O22         0.8210    0.5490   -1.5900 o         1 MOL     -0.711609
    156 O23        -0.6100    1.0300   -0.0700 o         1 MOL     -0.711609
    157 H67         4.4460    1.6250   -0.3620 hn        1 MOL      0.202516
    158 H68         3.6060    3.5580    1.6830 h1        1 MOL      0.113568
    159 H69         1.7100    1.9060    1.9440 hc        1 MOL     -0.014506
    160 H70         2.4700    0.7000    0.9540 hc        1 MOL     -0.014506
    161 H71         2.1470    2.4370   -0.9570 hc        1 MOL      0.052166
    162 H72         1.1560    3.2630    0.1870 hc        1 MOL      0.052166
    163 N14         4.9970    0.7500    2.5970 n         1 MOL     -0.133659
    164 C55         5.7940    0.0690    3.6560 c3        1 MOL     -0.236234
    165 H73         6.8180   -0.0690    3.3070 h1        1 MOL      0.094816
    166 H74         5.7980    0.6790    4.5580 h1        1 MOL      0.094816
    167 H75         5.3520   -0.9030    3.8760 h1        1 MOL      0.094816
    168 H76         5.0470    0.4080    1.6400 hn        1 MOL      0.092106
    169 Ca1        -2.5130   -0.3740   -1.0540 Ca        1 MOL      1.832542
    170 O24        -1.6020    1.4120   -2.9300 oh        1 MOL     -0.895375
    171 H77        -0.8510    1.9910   -2.7960 ho        1 MOL      0.415802
    172 H78        -1.6160    1.2610   -3.8840 ho        1 MOL      0.415802
    173 O25        -0.1990   -1.6640   -2.1460 oh        1 MOL     -0.895375
    174 H79         0.4160   -2.1360   -2.7110 ho        1 MOL      0.415802
    175 H80         0.2850   -0.8920   -1.8630 ho        1 MOL      0.415802
    176 O26        -2.8200   -1.2370   -3.6680 oh        1 MOL     -0.895375
    177 H81        -3.4820   -0.6390   -4.0170 ho        1 MOL      0.415802
    178 H82        -2.4100   -1.6220   -4.4470 ho        1 MOL      0.415802
@<TRIPOS>BOND
     1    1    2 1   
     2    1    4 1   
     3    1    5 1   
     4    1    6 1   
     5    2    3 2   
     6    2    7 1   
     7    7    8 1   
     8    7   15 1   
     9    8    9 1   
    10    8   11 1   
    11    8   16 1   
    12    9   10 2   
    13    9   19 1   
    14   11   12 1   
    15   11   17 1   
    16   11   18 1   
    17   12   13 1   
    18   12   14 1   
    19   19   20 1   
    20   19   24 1   
    21   20   21 1   
    22   20   23 1   
    23   20   25 1   
    24   21   22 2   
    25   21   29 1   
    26   23   26 1   
    27   23   27 1   
    28   23   28 1   
    29   29   30 1   
    30   29   37 1   
    31   30   31 1   
    32   30   33 1   
    33   30   38 1   
    34   31   32 2   
    35   31   41 1   
    36   33   34 1   
    37   33   39 1   
    38   33   40 1   
    39   34   35 1   
    40   34   36 1   
    41   41   42 1   
    42   41   45 1   
    43   42   43 1   
    44   42   46 1   
    45   42   47 1   
    46   43   44 2   
    47   43   48 1   
    48   48   49 1   
    49   48   56 1   
    50   49   50 1   
    51   49   52 1   
    52   49   57 1   
    53   50   51 2   
    54   50   62 1   
    55   52   53 1   
    56   52   58 1   
    57   52   59 1   
    58   53   54 1   
    59   53   55 2   
    60   54   60 1   
    61   54   61 1   
    62   62   63 1   
    63   62   66 1   
    64   63   64 1   
    65   63   67 1   
    66   63   68 1   
    67   64   65 2   
    68   64   69 1   
    69   69   70 1   
    70   69   76 1   
    71   70   71 1   
    72   70   73 1   
    73   70   77 1   
    74   71   72 2   
    75   71   83 1   
    76   73   74 1   
    77   73   75 1   
    78   73   78 1   
    79   74   80 1   
    80   74   81 1   
    81   74   82 1   
    82   75   79 1   
    83   83   84 1   
    84   83   91 1   
    85   84   85 1   
    86   84   87 1   
    87   84   92 1   
    88   85   86 2   
    89   85  102 1   
    90   87   88 1   
    91   87   89 1   
    92   87   93 1   
    93   88   90 1   
    94   88   94 1   
    95   88   95 1   
    96   89   96 1   
    97   89   97 1   
    98   89   98 1   
    99   90   99 1   
   100   90  100 1   
   101   90  101 1   
   102  102  103 1   
   103  102  110 1   
   104  103  104 1   
   105  103  106 1   
   106  103  111 1   
   107  104  105 2   
   108  104  114 1   
   109  106  107 1   
   110  106  112 1   
   111  106  113 1   
   112  107  108 1   
   113  107  109 1   
   114  114  115 1   
   115  114  125 1   
   116  115  116 1   
   117  115  118 1   
   118  115  126 1   
   119  116  117 2   
   120  116  134 1   
   121  118  119 1   
   122  118  127 1   
   123  118  128 1   
   124  119  120 ar  
   125  119  121 ar  
   126  120  122 ar  
   127  120  129 1   
   128  121  123 ar  
   129  121  130 1   
   130  122  124 ar  
   131  122  131 1   
   132  123  124 ar  
   133  123  132 1   
   134  124  133 1   
   135  134  135 1   
   136  134  140 1   
   137  135  136 1   
   138  135  138 1   
   139  135  141 1   
   140  136  137 2   
   141  136  148 1   
   142  138  139 1   
   143  138  142 1   
   144  138  143 1   
   145  139  140 1   
   146  139  144 1   
   147  139  145 1   
   148  140  146 1   
   149  140  147 1   
   150  148  149 1   
   151  148  157 1   
   152  149  150 1   
   153  149  152 1   
   154  149  158 1   
   155  150  151 2   
   156  150  163 1   
   157  152  153 1   
   158  152  159 1   
   159  152  160 1   
   160  153  154 1   
   161  153  161 1   
   162  153  162 1   
   163  154  155 1   
   164  154  156 1   
   165  163  164 1   
   166  163  168 1   
   167  164  165 1   
   168  164  166 1   
   169  164  167 1   
   170  170  171 1   
   171  170  172 1   
   172  173  174 1   
   173  173  175 1   
   174  176  177 1   
   175  176  178 1   
@<TRIPOS>SUBSTRUCTURE
     1 MOL         1 TEMP              0 ****  ****    0 ROOT
