@<TRIPOS>MOLECULE
MOL
  179   176     1     0     0
SMALL
resp


@<TRIPOS>ATOM
      1 C1          0.1170    4.8880    4.4940 c3        1 MOL     -0.378896
      2 C2         -0.2580    4.0410    3.2440 c         1 MOL      0.562084
      3 O1          0.2280    4.3700    2.1530 o         1 MOL     -0.503890
      4 H1          1.1190    4.6150    4.8300 hc        1 MOL      0.101015
      5 H2          0.0970    5.9470    4.2370 hc        1 MOL      0.101015
      6 H3         -0.5980    4.6940    5.2930 hc        1 MOL      0.101015
      7 N1         -1.2400    3.1370    3.3670 n         1 MOL     -0.419746
      8 C3         -1.9160    2.4080    2.2940 c3        1 MOL      0.011583
      9 C4         -3.0470    3.3370    1.6470 c         1 MOL      0.428797
     10 O2         -4.2480    3.1210    1.6790 o         1 MOL     -0.460631
     11 C5         -2.5260    1.1400    2.7360 c3        1 MOL      0.024272
     12 C6         -3.1090    0.2470    1.5520 c         1 MOL      0.688607
     13 O3         -2.5640    0.2450    0.4310 o         1 MOL     -0.729168
     14 O4         -4.1390   -0.4200    1.8020 o         1 MOL     -0.729168
     15 H4         -1.5490    2.9940    4.3170 hn        1 MOL      0.293017
     16 H5         -1.2260    2.2230    1.4650 h1        1 MOL      0.101607
     17 H6         -3.2970    1.2720    3.4910 hc        1 MOL     -0.007758
     18 H7         -1.8160    0.4830    3.2340 hc        1 MOL     -0.007758
     19 N2         -2.6000    4.4870    1.1410 n         1 MOL     -0.316835
     20 C7         -3.3710    5.6150    0.5880 c3        1 MOL     -0.108508
     21 C8         -4.1580    5.2020   -0.6270 c         1 MOL      0.470297
     22 O5         -5.1790    5.8640   -0.8800 o         1 MOL     -0.546830
     23 C9         -2.4790    6.8780    0.3480 c3        1 MOL     -0.066398
     24 C10        -1.5890    7.2880    1.5050 c3        1 MOL      0.133077
     25 C11        -1.2340    8.8240    1.6050 c3        1 MOL     -0.066340
     26 C12        -0.8230    9.3960    0.2510 c3        1 MOL      0.285991
     27 N3         -0.5570   10.7830    0.2760 n4        1 MOL     -0.551226
     28 H8         -1.5890    4.5490    1.1580 hn        1 MOL      0.276327
     29 H9         -4.0710    5.8830    1.3720 h1        1 MOL      0.123258
     30 H10        -3.0840    7.7670    0.1610 hc        1 MOL      0.026071
     31 H11        -1.8320    6.7290   -0.5110 hc        1 MOL      0.026071
     32 H12        -0.7180    6.6340    1.5450 hc        1 MOL     -0.012455
     33 H13        -2.1650    7.1240    2.4160 hc        1 MOL     -0.012455
     34 H14        -0.4260    8.9240    2.3260 hc        1 MOL      0.020951
     35 H15        -2.0210    9.5240    1.8800 hc        1 MOL      0.020951
     36 H16        -1.4920    9.1990   -0.5860 hx        1 MOL      0.023264
     37 H17         0.0840    8.8520   -0.0200 hx        1 MOL      0.023264
     38 H18         0.3100   10.9630    0.7690 hn        1 MOL      0.369348
     39 H19        -0.3050   11.1150   -0.6460 hn        1 MOL      0.369348
     40 H20        -1.3910   11.2490    0.5890 hn        1 MOL      0.369348
     41 N4         -3.7550    4.1710   -1.3730 n         1 MOL     -0.271240
     42 C13        -4.5040    3.6290   -2.5900 c3        1 MOL     -0.050177
     43 C14        -5.6320    2.5970   -2.1010 c         1 MOL      0.435672
     44 O6         -6.4770    2.1320   -2.8620 o         1 MOL     -0.543046
     45 C15        -3.4800    2.9740   -3.5530 c3        1 MOL     -0.192777
     46 C16        -2.5950    1.9090   -2.9400 c         1 MOL      0.821146
     47 O7         -1.4710    2.1790   -2.5860 o         1 MOL     -0.766333
     48 O8         -2.9380    0.7430   -2.8300 o         1 MOL     -0.766333
     49 H21        -2.9930    3.5610   -1.1100 hn        1 MOL      0.201188
     50 H22        -5.0400    4.4420   -3.0770 h1        1 MOL      0.116888
     51 H23        -2.8060    3.6770   -4.0370 hc        1 MOL      0.058527
     52 H24        -4.0410    2.4310   -4.3140 hc        1 MOL      0.058527
     53 N5         -5.5750    2.3350   -0.8290 n         1 MOL     -0.084550
     54 C17        -6.4930    1.5730   -0.1170 c3        1 MOL     -0.198626
     55 C18        -6.5370    0.1180   -0.3400 c         1 MOL      0.508070
     56 O9         -7.5110   -0.5070    0.0170 o         1 MOL     -0.575857
     57 H25        -4.8690    2.8240   -0.2870 hn        1 MOL      0.145539
     58 H26        -7.4930    2.0100   -0.1320 h1        1 MOL      0.108972
     59 H27        -6.2870    1.6250    0.9500 h1        1 MOL      0.108972
     60 N6         -5.6600   -0.4260   -1.2030 n         1 MOL     -0.154256
     61 C19        -5.7410   -1.7780   -1.8130 c3        1 MOL      0.023912
     62 C20        -5.6480   -2.9610   -0.8290 c         1 MOL      0.290650
     63 O10        -6.0810   -4.1220   -1.1370 o         1 MOL     -0.525842
     64 C21        -4.7010   -1.8920   -2.9650 c3        1 MOL     -0.168815
     65 C22        -3.4050   -2.6170   -2.5550 c         1 MOL      0.560872
     66 N7         -3.0250   -3.7400   -3.2000 n         1 MOL     -0.689929
     67 O11        -2.6870   -2.2660   -1.6310 o         1 MOL     -0.499451
     68 H28        -4.9440    0.2040   -1.5270 hn        1 MOL      0.144241
     69 H29        -6.7520   -1.7220   -2.2020 h1        1 MOL      0.098592
     70 H30        -4.4440   -0.9560   -3.4610 hc        1 MOL      0.061490
     71 H31        -5.1760   -2.6290   -3.6130 hc        1 MOL      0.061490
     72 H32        -3.6590   -4.0330   -3.9350 hn        1 MOL      0.338455
     73 H33        -2.1950   -4.2560   -2.9640 hn        1 MOL      0.338455
     74 N8         -5.0700   -2.6940    0.3270 n         1 MOL     -0.051945
     75 C23        -5.1660   -3.6050    1.4720 c3        1 MOL     -0.244357
     76 C24        -3.7160   -4.0450    1.8920 c         1 MOL      0.571569
     77 O12        -3.5980   -4.9030    2.7500 o         1 MOL     -0.550098
     78 H34        -4.6300   -1.8020    0.4760 hn        1 MOL      0.282334
     79 H35        -5.8040   -4.4700    1.2790 h1        1 MOL      0.140546
     80 H36        -5.7540   -3.1930    2.2920 h1        1 MOL      0.140546
     81 N9         -2.6040   -3.4720    1.3510 n         1 MOL     -0.456440
     82 C25        -1.2850   -4.0100    1.5100 c3        1 MOL      0.289140
     83 C26        -0.3140   -2.8200    1.3390 c         1 MOL      0.425355
     84 O13        -0.6930   -1.9230    0.6610 o         1 MOL     -0.550292
     85 C27        -0.9940   -5.0910    0.4470 c3        1 MOL     -0.093371
     86 C28        -1.8920   -6.2670    0.4520 ca        1 MOL     -0.022754
     87 C29        -3.0010   -6.3370   -0.3860 ca        1 MOL     -0.110266
     88 C30        -1.6550   -7.3230    1.3630 ca        1 MOL     -0.110266
     89 C31        -3.9540   -7.3210   -0.1200 ca        1 MOL     -0.358266
     90 C32        -2.5400   -8.3940    1.4980 ca        1 MOL     -0.358266
     91 C33        -3.7510   -8.3280    0.7850 ca        1 MOL      0.473374
     92 O14        -4.7100   -9.2950    1.0480 oh        1 MOL     -0.518927
     93 H37        -2.6930   -2.8390    0.5760 hn        1 MOL      0.240200
     94 H38        -1.0730   -4.3850    2.5150 h1        1 MOL     -0.000198
     95 H39        -0.0230   -5.4700    0.7600 hc        1 MOL      0.019095
     96 H40        -0.9740   -4.6100   -0.5380 hc        1 MOL      0.019095
     97 H41        -3.2140   -5.6100   -1.1480 ha        1 MOL      0.131708
     98 H42        -0.8270   -7.1600    2.0470 ha        1 MOL      0.131708
     99 H43        -4.8820   -7.4170   -0.6510 ha        1 MOL      0.168576
    100 H44        -2.4410   -9.1350    2.2780 ha        1 MOL      0.168576
    101 H45        -4.3060   -9.9530    1.6100 ho        1 MOL      0.350008
    102 N10         0.8620   -2.9720    1.9360 n         1 MOL     -0.369692
    103 C34         1.9150   -2.0060    1.7260 c3        1 MOL     -0.032923
    104 C35         3.2310   -2.6980    1.3920 c         1 MOL      0.376088
    105 O15         3.7170   -3.6640    2.0540 o         1 MOL     -0.533052
    106 C36         2.1880   -0.9760    2.8740 c3        1 MOL      0.046595
    107 C37         0.9790   -0.7000    3.8210 c3        1 MOL      0.125474
    108 C38         2.5190    0.3250    2.0780 c3        1 MOL     -0.427593
    109 C39         1.3810    0.0260    5.0700 c3        1 MOL     -0.257936
    110 H46         1.0380   -3.7770    2.5140 hn        1 MOL      0.301686
    111 H47         1.6340   -1.3980    0.8660 h1        1 MOL      0.054302
    112 H48         3.0380   -1.3170    3.4510 hc        1 MOL      0.034468
    113 H49         0.5360   -1.6650    4.0640 hc        1 MOL      0.009394
    114 H50         0.2940   -0.0470    3.2840 hc        1 MOL      0.009394
    115 H51         3.4220    0.2440    1.4760 hc        1 MOL      0.132040
    116 H52         1.7000    0.6840    1.4650 hc        1 MOL      0.132040
    117 H53         2.7720    1.0940    2.8080 hc        1 MOL      0.132040
    118 H54         0.5190    0.2610    5.6930 hc        1 MOL      0.052925
    119 H55         2.0580   -0.5920    5.6590 hc        1 MOL      0.052925
    120 H56         1.9080    0.9630    4.8930 hc        1 MOL      0.052925
    121 N11         3.7680   -2.4330    0.2120 n         1 MOL     -0.155514
    122 C40         5.0570   -2.9940   -0.2600 c3        1 MOL     -0.098091
    123 C41         6.2000   -2.2950    0.4780 c         1 MOL      0.448843
    124 O16         6.0320   -1.1580    0.8660 o         1 MOL     -0.348617
    125 C42         5.2770   -2.8820   -1.7450 c3        1 MOL      0.032562
    126 O17         5.1120   -1.5520   -2.2390 oh        1 MOL     -0.544807
    127 H57         3.1690   -1.8410   -0.3610 hn        1 MOL      0.251163
    128 H58         5.1540   -4.0180    0.0740 h1        1 MOL      0.099099
    129 H59         4.5280   -3.5020   -2.2400 h1        1 MOL      0.042927
    130 H60         6.2670   -3.2140   -2.0400 h1        1 MOL      0.042927
    131 H61         5.1890   -1.6100   -3.1910 ho        1 MOL      0.418939
    132 N12         7.4230   -2.8230    0.3870 n         1 MOL     -0.371651
    133 C43         8.6200   -2.1380    0.6920 c3        1 MOL      0.096742
    134 C44         8.7390   -0.8650   -0.0700 c         1 MOL      0.507226
    135 O18         8.9140    0.1460    0.6020 o         1 MOL     -0.500056
    136 C45         9.8170   -3.0680    0.4650 c3        1 MOL     -0.327438
    137 H62         7.4740   -3.7970    0.0920 hn        1 MOL      0.265968
    138 H63         8.5680   -1.8880    1.7550 h1        1 MOL      0.084446
    139 H64         9.9880   -3.3820   -0.5650 hc        1 MOL      0.094405
    140 H65        10.6890   -2.5070    0.8030 hc        1 MOL      0.094405
    141 H66         9.6400   -3.9750    1.0390 hc        1 MOL      0.094405
    142 N13         8.4990   -0.8940   -1.3980 n         1 MOL     -0.378973
    143 C46         8.6760    0.2040   -2.3590 c3        1 MOL      0.126383
    144 C47         7.7850    1.4140   -2.0680 c         1 MOL      0.432343
    145 O19         8.0920    2.5530   -2.2690 o         1 MOL     -0.521152
    146 C48         8.3580   -0.3210   -3.7530 c3        1 MOL     -0.246196
    147 H67         8.3280   -1.8010   -1.8000 hn        1 MOL      0.274146
    148 H68         9.6770    0.5800   -2.1620 h1        1 MOL      0.064018
    149 H69         8.8090    0.3740   -4.4610 hc        1 MOL      0.071680
    150 H70         8.9370   -1.2480   -3.7590 hc        1 MOL      0.071680
    151 H71         7.2950   -0.4690   -3.9720 hc        1 MOL      0.071680
    152 N14         6.5790    1.0860   -1.5710 n         1 MOL     -0.138148
    153 C49         5.4790    2.0170   -1.3200 c3        1 MOL     -0.041426
    154 C50         5.5740    2.5710    0.1430 c         1 MOL      0.453922
    155 O20         5.2510    3.7470    0.3760 o         1 MOL     -0.573181
    156 C51         4.1370    1.3720   -1.6720 c3        1 MOL      0.139423
    157 C52         2.8500    2.2940   -1.7360 c3        1 MOL     -0.326167
    158 C53         1.6450    1.4190   -1.5890 c         1 MOL      1.086780
    159 O21         1.3720    0.5240   -2.4510 o         1 MOL     -0.901779
    160 O22         0.9120    1.5710   -0.5880 o         1 MOL     -0.901779
    161 H72         6.5310    0.0880   -1.4180 hn        1 MOL      0.008272
    162 H73         5.6860    2.9290   -1.8920 h1        1 MOL      0.086636
    163 H74         4.1210    0.6280   -0.8830 hc        1 MOL     -0.023238
    164 H75         4.1910    0.9050   -2.6490 hc        1 MOL     -0.023238
    165 H76         2.7960    2.7810   -2.7050 hc        1 MOL      0.071012
    166 H77         2.8020    3.0210   -0.9350 hc        1 MOL      0.071012
    167 N15         6.1030    1.7760    1.0630 n         1 MOL     -0.033884
    168 C54         6.4500    2.0870    2.4450 c3        1 MOL     -0.261931
    169 H78         7.4980    1.8410    2.6210 h1        1 MOL      0.101419
    170 H79         6.2910    3.1490    2.6310 h1        1 MOL      0.101419
    171 H80         5.8230    1.5020    3.1180 h1        1 MOL      0.101419
    172 H81         6.3590    0.8580    0.7220 hn        1 MOL      0.063390
    173 Ca1        -0.8640   -0.2390   -1.4360 Ca        1 MOL      1.738575
    174 O23        -0.8600   -1.4020   -3.7740 oh        1 MOL     -0.841438
    175 H82        -1.4460   -1.0350   -4.4360 ho        1 MOL      0.411613
    176 H83        -0.0380   -1.5340   -4.2310 ho        1 MOL      0.411613
    177 O24         1.0070   -2.2410   -1.5870 oh        1 MOL     -0.841438
    178 H84         1.1120   -3.1610   -1.8270 ho        1 MOL      0.411613
    179 H85         1.4370   -1.7570   -2.2870 ho        1 MOL      0.411613
@<TRIPOS>BOND
     1    1    2 1   
     2    1    4 1   
     3    1    5 1   
     4    1    6 1   
     5    2    3 2   
     6    2    7 1   
     7    7    8 1   
     8    7   15 1   
     9    8    9 1   
    10    8   11 1   
    11    8   16 1   
    12    9   10 2   
    13    9   19 1   
    14   11   12 1   
    15   11   17 1   
    16   11   18 1   
    17   12   13 1   
    18   12   14 1   
    19   19   20 1   
    20   19   28 1   
    21   20   21 1   
    22   20   23 1   
    23   20   29 1   
    24   21   22 2   
    25   21   41 1   
    26   23   24 1   
    27   23   30 1   
    28   23   31 1   
    29   24   25 1   
    30   24   32 1   
    31   24   33 1   
    32   25   26 1   
    33   25   34 1   
    34   25   35 1   
    35   26   27 1   
    36   26   36 1   
    37   26   37 1   
    38   27   38 1   
    39   27   39 1   
    40   27   40 1   
    41   41   42 1   
    42   41   49 1   
    43   42   43 1   
    44   42   45 1   
    45   42   50 1   
    46   43   44 2   
    47   43   53 1   
    48   45   46 1   
    49   45   51 1   
    50   45   52 1   
    51   46   47 1   
    52   46   48 1   
    53   53   54 1   
    54   53   57 1   
    55   54   55 1   
    56   54   58 1   
    57   54   59 1   
    58   55   56 2   
    59   55   60 1   
    60   60   61 1   
    61   60   68 1   
    62   61   62 1   
    63   61   64 1   
    64   61   69 1   
    65   62   63 2   
    66   62   74 1   
    67   64   65 1   
    68   64   70 1   
    69   64   71 1   
    70   65   66 1   
    71   65   67 2   
    72   66   72 1   
    73   66   73 1   
    74   74   75 1   
    75   74   78 1   
    76   75   76 1   
    77   75   79 1   
    78   75   80 1   
    79   76   77 2   
    80   76   81 1   
    81   81   82 1   
    82   81   93 1   
    83   82   83 1   
    84   82   85 1   
    85   82   94 1   
    86   83   84 2   
    87   83  102 1   
    88   85   86 1   
    89   85   95 1   
    90   85   96 1   
    91   86   87 ar  
    92   86   88 ar  
    93   87   89 ar  
    94   87   97 1   
    95   88   90 ar  
    96   88   98 1   
    97   89   91 ar  
    98   89   99 1   
    99   90   91 ar  
   100   90  100 1   
   101   91   92 1   
   102   92  101 1   
   103  102  103 1   
   104  102  110 1   
   105  103  104 1   
   106  103  106 1   
   107  103  111 1   
   108  104  105 2   
   109  104  121 1   
   110  106  107 1   
   111  106  108 1   
   112  106  112 1   
   113  107  109 1   
   114  107  113 1   
   115  107  114 1   
   116  108  115 1   
   117  108  116 1   
   118  108  117 1   
   119  109  118 1   
   120  109  119 1   
   121  109  120 1   
   122  121  122 1   
   123  121  127 1   
   124  122  123 1   
   125  122  125 1   
   126  122  128 1   
   127  123  124 2   
   128  123  132 1   
   129  125  126 1   
   130  125  129 1   
   131  125  130 1   
   132  126  131 1   
   133  132  133 1   
   134  132  137 1   
   135  133  134 1   
   136  133  136 1   
   137  133  138 1   
   138  134  135 2   
   139  134  142 1   
   140  136  139 1   
   141  136  140 1   
   142  136  141 1   
   143  142  143 1   
   144  142  147 1   
   145  143  144 1   
   146  143  146 1   
   147  143  148 1   
   148  144  145 2   
   149  144  152 1   
   150  146  149 1   
   151  146  150 1   
   152  146  151 1   
   153  152  153 1   
   154  152  161 1   
   155  153  154 1   
   156  153  156 1   
   157  153  162 1   
   158  154  155 2   
   159  154  167 1   
   160  156  157 1   
   161  156  163 1   
   162  156  164 1   
   163  157  158 1   
   164  157  165 1   
   165  157  166 1   
   166  158  159 1   
   167  158  160 1   
   168  167  168 1   
   169  167  172 1   
   170  168  169 1   
   171  168  170 1   
   172  168  171 1   
   173  174  175 1   
   174  174  176 1   
   175  177  178 1   
   176  177  179 1   
@<TRIPOS>SUBSTRUCTURE
     1 MOL         1 TEMP              0 ****  ****    0 ROOT
