@<TRIPOS>MOLECULE
MOL
  175   173     1     0     0
SMALL
resp


@<TRIPOS>ATOM
      1 C1          0.7600    4.0040    5.3470 c3        1 MOL     -0.287644
      2 C2          0.0520    3.9220    3.9610 c         1 MOL      0.698745
      3 O1          0.5770    4.1710    2.8650 o         1 MOL     -0.547413
      4 H1          0.0810    4.4480    6.0750 hc        1 MOL      0.072030
      5 H2          1.0370    3.0020    5.6730 hc        1 MOL      0.072030
      6 H3          1.6550    4.6200    5.2610 hc        1 MOL      0.072030
      7 N1         -1.2630    3.6550    3.9230 n         1 MOL     -0.621133
      8 C3         -2.0110    3.4510    2.6830 c3        1 MOL      0.255066
      9 C4         -2.0720    4.6620    1.6510 c         1 MOL      0.567998
     10 O2         -2.2260    5.7940    2.0420 o         1 MOL     -0.606951
     11 C5         -3.5360    3.0630    2.9450 c3        1 MOL     -0.290276
     12 C6         -4.2500    2.7210    1.6550 c         1 MOL      0.645626
     13 O3         -5.3750    3.2810    1.5830 o         1 MOL     -0.614917
     14 O4         -3.6900    2.0100    0.7810 o         1 MOL     -0.614917
     15 H4         -1.6820    3.5630    4.8450 hn        1 MOL      0.296231
     16 H5         -1.4930    2.6070    2.2220 h1        1 MOL     -0.054047
     17 H6         -4.0810    3.9190    3.3400 hc        1 MOL      0.055394
     18 H7         -3.6200    2.2440    3.6480 hc        1 MOL      0.055394
     19 N2         -2.0010    4.4570    0.3470 n         1 MOL     -0.302415
     20 C7         -2.2080    5.4300   -0.7450 c3        1 MOL      0.324954
     21 C8         -3.2470    5.0510   -1.8460 c         1 MOL      0.359385
     22 O5         -3.4230    5.7590   -2.8030 o         1 MOL     -0.542140
     23 C9         -0.8180    5.5870   -1.3150 c3        1 MOL     -0.412764
     24 H8         -1.6910    3.5450    0.0550 hn        1 MOL      0.218589
     25 H9         -2.6220    6.3630   -0.3750 h1        1 MOL      0.008005
     26 H10        -0.6810    6.6030   -1.6920 hc        1 MOL      0.100186
     27 H11        -0.0870    5.4860   -0.5070 hc        1 MOL      0.100186
     28 H12        -0.7140    4.8380   -2.0950 hc        1 MOL      0.100186
     29 N3         -3.9280    3.9180   -1.6760 n         1 MOL     -0.125102
     30 C10        -4.8330    3.4880   -2.7380 c3        1 MOL      0.037205
     31 C11        -6.1160    2.6780   -2.2850 c         1 MOL      0.312559
     32 O6         -7.0430    2.5480   -3.0920 o         1 MOL     -0.523991
     33 C12        -3.9680    2.4950   -3.6130 c3        1 MOL     -0.234395
     34 C13        -3.2780    1.3400   -2.8370 c         1 MOL      0.837825
     35 O7         -2.1490    0.9930   -3.3030 o         1 MOL     -0.734058
     36 O8         -3.8220    0.6580   -1.9570 o         1 MOL     -0.734058
     37 H13        -3.8980    3.3470   -0.8340 hn        1 MOL     -0.026880
     38 H14        -5.1860    4.3530   -3.2970 h1        1 MOL      0.089344
     39 H15        -3.2320    3.1200   -4.1240 hc        1 MOL      0.061701
     40 H16        -4.5220    2.0110   -4.4260 hc        1 MOL      0.061701
     41 N4         -6.2970    2.1070   -1.0500 n         1 MOL      0.031065
     42 C14        -7.4260    1.2830   -0.6870 c3        1 MOL     -0.337249
     43 C15        -7.4650   -0.1480   -1.3360 c         1 MOL      0.487063
     44 O9         -8.6040   -0.6640   -1.5150 o         1 MOL     -0.584275
     45 H17        -5.8150    2.5130   -0.2670 hn        1 MOL      0.111214
     46 H18        -8.3480    1.7260   -1.0710 h1        1 MOL      0.118365
     47 H19        -7.3710    1.1800    0.3980 h1        1 MOL      0.118365
     48 N5         -6.3220   -0.7670   -1.6600 n         1 MOL     -0.035708
     49 C16        -6.2240   -2.1590   -2.0990 c3        1 MOL     -0.144874
     50 C17        -6.3020   -3.3360   -1.0420 c         1 MOL      0.555407
     51 O10        -6.5710   -4.4960   -1.3600 o         1 MOL     -0.531177
     52 C18        -5.0690   -2.2430   -3.1160 c3        1 MOL     -0.058336
     53 C19        -3.6870   -2.4050   -2.5320 c         1 MOL      0.605561
     54 N6         -2.7120   -2.7340   -3.3270 n         1 MOL     -0.595238
     55 O11        -3.5130   -2.2470   -1.3460 o         1 MOL     -0.595864
     56 H20        -5.4350   -0.3020   -1.5200 hn        1 MOL      0.089554
     57 H21        -7.0970   -2.3760   -2.7160 h1        1 MOL      0.087067
     58 H22        -5.0410   -1.3610   -3.7570 hc        1 MOL      0.022528
     59 H23        -5.1580   -3.1350   -3.7330 hc        1 MOL      0.022528
     60 H24        -2.8510   -2.7800   -4.3240 hn        1 MOL      0.307511
     61 H25        -1.7780   -2.6320   -2.9490 hn        1 MOL      0.307511
     62 N7         -6.2180   -2.8870    0.2190 n         1 MOL     -0.380340
     63 C20        -6.3960   -3.6040    1.5350 c3        1 MOL     -0.129040
     64 C21        -5.0860   -4.2240    2.0130 c         1 MOL      0.537220
     65 O12        -4.9880   -4.9520    2.9510 o         1 MOL     -0.584857
     66 H26        -5.9730   -1.9220    0.3580 hn        1 MOL      0.255664
     67 H27        -7.2570   -4.2750    1.5410 h1        1 MOL      0.101295
     68 H28        -6.6430   -2.8260    2.2550 h1        1 MOL      0.101295
     69 N8         -3.9530   -3.8540    1.3750 n         1 MOL     -0.185396
     70 C22        -2.6070   -4.4020    1.5190 c3        1 MOL     -0.049707
     71 C23        -1.6190   -3.2640    1.5610 c         1 MOL      0.457316
     72 O13        -1.7160   -2.2220    0.9240 o         1 MOL     -0.516796
     73 C24        -2.1510   -5.4050    0.3890 c3        1 MOL      0.585053
     74 C25        -2.7130   -6.8050    0.5890 c3        1 MOL     -0.446460
     75 O14        -2.5310   -5.1230   -0.9580 oh        1 MOL     -0.613991
     76 H29        -3.9440   -3.0540    0.7600 hn        1 MOL      0.110533
     77 H30        -2.5010   -4.9980    2.4230 h1        1 MOL      0.062049
     78 H31        -1.0800   -5.6290    0.4010 h1        1 MOL     -0.042446
     79 H32        -2.1970   -4.2640   -1.2540 ho        1 MOL      0.324356
     80 H33        -3.7840   -6.6100    0.4800 hc        1 MOL      0.101011
     81 H34        -2.3460   -7.5110   -0.1610 hc        1 MOL      0.101011
     82 H35        -2.4700   -7.1710    1.5810 hc        1 MOL      0.101011
     83 N9         -0.5460   -3.4970    2.3120 n         1 MOL     -0.490909
     84 C26         0.7210   -2.7300    2.2200 c3        1 MOL      0.092052
     85 C27         1.3370   -3.0760    0.8890 c         1 MOL      0.410199
     86 O15         1.5200   -4.2530    0.5660 o         1 MOL     -0.571872
     87 C28         1.5750   -2.9140    3.4560 c3        1 MOL      0.169141
     88 C29         0.9470   -2.2400    4.6770 c3        1 MOL     -0.018402
     89 C30         2.9830   -2.3820    3.1690 c3        1 MOL     -0.176840
     90 C31         1.7580   -2.4000    5.9770 c3        1 MOL     -0.066686
     91 H36        -0.5330   -4.4610    2.5940 hn        1 MOL      0.245853
     92 H37         0.4460   -1.6730    2.1170 h1        1 MOL      0.064297
     93 H38         1.7080   -3.9860    3.6150 hc        1 MOL     -0.007226
     94 H39        -0.0780   -2.6090    4.7560 hc        1 MOL     -0.009201
     95 H40         0.7980   -1.1800    4.4270 hc        1 MOL     -0.009201
     96 H41         2.8310   -1.3610    2.8040 hc        1 MOL      0.026767
     97 H42         3.5890   -2.5500    4.0620 hc        1 MOL      0.026767
     98 H43         3.5330   -2.8100    2.3350 hc        1 MOL      0.026767
     99 H44         1.1970   -2.0580    6.8490 hc        1 MOL      0.016517
    100 H45         2.0900   -3.4190    6.1530 hc        1 MOL      0.016517
    101 H46         2.6460   -1.7760    5.9640 hc        1 MOL      0.016517
    102 N10         1.8860   -2.0990    0.2060 n         1 MOL     -0.147087
    103 C32         2.7050   -2.1320   -0.9860 c3        1 MOL      0.024612
    104 C33         4.0500   -1.5700   -0.7130 c         1 MOL      0.548131
    105 O16         4.2630   -0.8650    0.2530 o         1 MOL     -0.346627
    106 C34         1.9490   -1.3010   -2.0660 c3        1 MOL     -0.397002
    107 C35         0.4240   -1.6270   -2.1580 c         1 MOL      0.897992
    108 O17        -0.0120   -2.4340   -3.0050 o         1 MOL     -0.705686
    109 O18        -0.3120   -0.9180   -1.4680 o         1 MOL     -0.705686
    110 H47         1.7720   -1.1630    0.5710 hn        1 MOL      0.165124
    111 H48         2.8040   -3.1820   -1.2900 h1        1 MOL      0.075883
    112 H49         2.4900   -1.3560   -3.0180 hc        1 MOL      0.084433
    113 H50         1.9840   -0.3090   -1.6000 hc        1 MOL      0.084433
    114 N11         5.0740   -2.0070   -1.4500 n         1 MOL     -0.750709
    115 C36         6.4860   -1.7120   -1.1030 c3        1 MOL      0.546133
    116 C37         6.7380   -0.1930   -0.9720 c         1 MOL      0.210347
    117 O19         7.4160    0.2290    0.0060 o         1 MOL     -0.475222
    118 C38         7.3750   -2.4330   -2.1370 c3        1 MOL     -0.363280
    119 C39         8.8370   -2.0080   -1.9300 ca        1 MOL      0.130627
    120 C40         9.4710   -1.0960   -2.7250 ca        1 MOL     -0.173843
    121 C41         9.5590   -2.5530   -0.8730 ca        1 MOL     -0.173843
    122 C42        10.8580   -0.7720   -2.6150 ca        1 MOL     -0.072934
    123 C43        10.9050   -2.2070   -0.6320 ca        1 MOL     -0.072934
    124 C44        11.5570   -1.3710   -1.5530 ca        1 MOL     -0.171674
    125 H51         4.8700   -2.4390   -2.3310 hn        1 MOL      0.348889
    126 H52         6.7300   -2.1280   -0.1250 h1        1 MOL      0.012247
    127 H53         7.1650   -2.3150   -3.1990 hc        1 MOL      0.104699
    128 H54         7.3010   -3.4790   -1.8380 hc        1 MOL      0.104699
    129 H55         8.8850   -0.6290   -3.5030 ha        1 MOL      0.108124
    130 H56         9.0490   -3.3170   -0.3050 ha        1 MOL      0.108124
    131 H57        11.2780   -0.1690   -3.4170 ha        1 MOL      0.109116
    132 H58        11.3000   -2.5510    0.3090 ha        1 MOL      0.109116
    133 H59        12.5660   -1.0180   -1.4020 ha        1 MOL      0.116059
    134 N12         6.2190    0.6280   -1.9300 n         1 MOL      0.054097
    135 C45         6.4000    2.1210   -1.7740 c3        1 MOL      0.053166
    136 C46         5.6890    2.7460   -0.5830 c         1 MOL      0.360911
    137 O20         6.0970    3.8080   -0.1640 o         1 MOL     -0.493525
    138 C47         5.8880    2.6900   -3.1030 c3        1 MOL     -0.100532
    139 C48         6.3020    1.4660   -4.0350 c3        1 MOL     -0.029888
    140 C49         5.8800    0.3050   -3.2470 c3        1 MOL     -0.150544
    141 H60         7.4670    2.3430   -1.7250 h1        1 MOL      0.065672
    142 H61         4.7950    2.6580   -3.0610 hc        1 MOL      0.058700
    143 H62         6.3780    3.6420   -3.3040 hc        1 MOL      0.058700
    144 H63         5.8170    1.5040   -5.0090 hc        1 MOL      0.025031
    145 H64         7.3880    1.4830   -4.1150 hc        1 MOL      0.025031
    146 H65         4.7900    0.2860   -3.2760 h1        1 MOL      0.078246
    147 H66         6.2930   -0.6280   -3.6170 h1        1 MOL      0.078246
    148 N13         4.7080    2.0040    0.0350 n         1 MOL     -0.047083
    149 C50         4.0760    2.4420    1.3540 c3        1 MOL     -0.341776
    150 C51         4.9750    2.1690    2.5290 c         1 MOL      0.600446
    151 O21         5.2470    2.9830    3.4270 o         1 MOL     -0.573719
    152 C52         2.6150    1.8500    1.4890 c3        1 MOL      0.118654
    153 C53         1.8380    2.1080    0.2630 c3        1 MOL      0.088641
    154 C54         0.3420    1.6770    0.3070 c         1 MOL      0.572116
    155 O22        -0.5080    2.1500   -0.4540 o         1 MOL     -0.679739
    156 O23         0.0300    0.7800    1.1420 o         1 MOL     -0.679739
    157 H67         4.7820    1.0150   -0.1460 hn        1 MOL     -0.028681
    158 H68         4.0620    3.5220    1.2230 h1        1 MOL      0.166173
    159 H69         2.1630    2.3830    2.3270 hc        1 MOL     -0.031626
    160 H70         2.6260    0.7620    1.6360 hc        1 MOL     -0.031626
    161 H71         2.3330    1.7360   -0.6380 hc        1 MOL     -0.011416
    162 H72         1.7840    3.1840    0.1090 hc        1 MOL     -0.011416
    163 N14         5.4860    0.9670    2.5130 n         1 MOL     -0.108180
    164 C55         6.4520    0.4460    3.4580 c3        1 MOL     -0.415400
    165 H73         6.1260    0.6720    4.4730 h1        1 MOL      0.137209
    166 H74         6.5330   -0.6340    3.3350 h1        1 MOL      0.137209
    167 H75         7.4220    0.9070    3.2780 h1        1 MOL      0.137209
    168 H76         5.3190    0.3620    1.7170 hn        1 MOL      0.151165
    169 Ca1        -2.2210    0.0940   -0.1320 Ca        1 MOL      1.684107
    170 O24        -1.9890    0.0820    2.9140 oh        1 MOL     -0.822715
    171 H77        -1.0990    0.2720    2.6160 ho        1 MOL      0.409301
    172 H78        -2.0420    0.4500    3.7950 ho        1 MOL      0.409301
    173 O25        -4.1930   -0.7740    1.4700 oh        1 MOL     -0.822715
    174 H79        -4.9390   -0.3070    1.8440 ho        1 MOL      0.409301
    175 H80        -3.5100   -0.7230    2.1370 ho        1 MOL      0.409301
@<TRIPOS>BOND
     1    1    2 1   
     2    1    4 1   
     3    1    5 1   
     4    1    6 1   
     5    2    3 2   
     6    2    7 1   
     7    7    8 1   
     8    7   15 1   
     9    8    9 1   
    10    8   11 1   
    11    8   16 1   
    12    9   10 2   
    13    9   19 1   
    14   11   12 1   
    15   11   17 1   
    16   11   18 1   
    17   12   13 1   
    18   12   14 1   
    19   19   20 1   
    20   19   24 1   
    21   20   21 1   
    22   20   23 1   
    23   20   25 1   
    24   21   22 2   
    25   21   29 1   
    26   23   26 1   
    27   23   27 1   
    28   23   28 1   
    29   29   30 1   
    30   29   37 1   
    31   30   31 1   
    32   30   33 1   
    33   30   38 1   
    34   31   32 2   
    35   31   41 1   
    36   33   34 1   
    37   33   39 1   
    38   33   40 1   
    39   34   35 1   
    40   34   36 1   
    41   41   42 1   
    42   41   45 1   
    43   42   43 1   
    44   42   46 1   
    45   42   47 1   
    46   43   44 2   
    47   43   48 1   
    48   48   49 1   
    49   48   56 1   
    50   49   50 1   
    51   49   52 1   
    52   49   57 1   
    53   50   51 2   
    54   50   62 1   
    55   52   53 1   
    56   52   58 1   
    57   52   59 1   
    58   53   54 1   
    59   53   55 2   
    60   54   60 1   
    61   54   61 1   
    62   62   63 1   
    63   62   66 1   
    64   63   64 1   
    65   63   67 1   
    66   63   68 1   
    67   64   65 2   
    68   64   69 1   
    69   69   70 1   
    70   69   76 1   
    71   70   71 1   
    72   70   73 1   
    73   70   77 1   
    74   71   72 2   
    75   71   83 1   
    76   73   74 1   
    77   73   75 1   
    78   73   78 1   
    79   74   80 1   
    80   74   81 1   
    81   74   82 1   
    82   75   79 1   
    83   83   84 1   
    84   83   91 1   
    85   84   85 1   
    86   84   87 1   
    87   84   92 1   
    88   85   86 2   
    89   85  102 1   
    90   87   88 1   
    91   87   89 1   
    92   87   93 1   
    93   88   90 1   
    94   88   94 1   
    95   88   95 1   
    96   89   96 1   
    97   89   97 1   
    98   89   98 1   
    99   90   99 1   
   100   90  100 1   
   101   90  101 1   
   102  102  103 1   
   103  102  110 1   
   104  103  104 1   
   105  103  106 1   
   106  103  111 1   
   107  104  105 2   
   108  104  114 1   
   109  106  107 1   
   110  106  112 1   
   111  106  113 1   
   112  107  108 1   
   113  107  109 1   
   114  114  115 1   
   115  114  125 1   
   116  115  116 1   
   117  115  118 1   
   118  115  126 1   
   119  116  117 2   
   120  116  134 1   
   121  118  119 1   
   122  118  127 1   
   123  118  128 1   
   124  119  120 ar  
   125  119  121 ar  
   126  120  122 ar  
   127  120  129 1   
   128  121  123 ar  
   129  121  130 1   
   130  122  124 ar  
   131  122  131 1   
   132  123  124 ar  
   133  123  132 1   
   134  124  133 1   
   135  134  135 1   
   136  134  140 1   
   137  135  136 1   
   138  135  138 1   
   139  135  141 1   
   140  136  137 2   
   141  136  148 1   
   142  138  139 1   
   143  138  142 1   
   144  138  143 1   
   145  139  140 1   
   146  139  144 1   
   147  139  145 1   
   148  140  146 1   
   149  140  147 1   
   150  148  149 1   
   151  148  157 1   
   152  149  150 1   
   153  149  152 1   
   154  149  158 1   
   155  150  151 2   
   156  150  163 1   
   157  152  153 1   
   158  152  159 1   
   159  152  160 1   
   160  153  154 1   
   161  153  161 1   
   162  153  162 1   
   163  154  155 1   
   164  154  156 1   
   165  163  164 1   
   166  163  168 1   
   167  164  165 1   
   168  164  166 1   
   169  164  167 1   
   170  170  171 1   
   171  170  172 1   
   172  173  174 1   
   173  173  175 1   
@<TRIPOS>SUBSTRUCTURE
     1 MOL         1 TEMP              0 ****  ****    0 ROOT
