@<TRIPOS>MOLECULE
MOL
  186   183     1     0     0
SMALL
resp


@<TRIPOS>ATOM
      1 C1         -0.3210    2.3960    6.0440 c3        1 MOL     -0.234935
      2 C2         -0.9200    2.3520    4.5800 c         1 MOL      0.830270
      3 O1         -0.3180    2.8100    3.6770 o         1 MOL     -0.661823
      4 H1          0.7680    2.3930    5.9920 hc        1 MOL      0.051406
      5 H2         -0.6570    3.3020    6.5490 hc        1 MOL      0.051406
      6 H3         -0.6590    1.5220    6.6020 hc        1 MOL      0.051406
      7 N1         -2.0700    1.7730    4.2730 n         1 MOL     -0.810588
      8 C3         -2.6410    1.6710    2.8720 c3        1 MOL      0.485911
      9 C4         -3.1380    3.0320    2.4630 c         1 MOL      0.514034
     10 O2         -4.0950    3.5050    2.9920 o         1 MOL     -0.551778
     11 C5         -3.7600    0.6420    2.9000 c3        1 MOL     -0.498138
     12 C6         -4.4900    0.5880    1.6050 c         1 MOL      0.821384
     13 O3         -5.6110   -0.0150    1.4680 o         1 MOL     -0.688118
     14 O4         -3.9210    0.9600    0.5960 o         1 MOL     -0.688118
     15 H4         -2.5460    1.3260    5.0400 hn        1 MOL      0.332826
     16 H5         -1.9650    1.1370    2.2080 h1        1 MOL     -0.029014
     17 H6         -4.5260    1.0190    3.5850 hc        1 MOL      0.106957
     18 H7         -3.2900   -0.3070    3.1600 hc        1 MOL      0.106957
     19 N2         -2.5960    3.6310    1.3420 n         1 MOL     -0.315843
     20 C7         -2.8630    5.0680    0.9300 c3        1 MOL     -0.030523
     21 C8         -3.9230    5.0140   -0.1740 c         1 MOL      0.514244
     22 O5         -4.9930    5.6600   -0.0710 o         1 MOL     -0.584077
     23 C9         -1.5030    5.6680    0.5370 c3        1 MOL      0.240119
     24 C10        -0.4920    5.6580    1.6900 c3        1 MOL      0.010229
     25 C11        -1.6310    7.0890   -0.0330 c3        1 MOL     -0.364916
     26 C12         0.8310    6.3760    1.5480 c3        1 MOL      0.167584
     27 H8         -1.8180    3.1930    0.8790 hn        1 MOL      0.136620
     28 H9         -3.3020    5.5990    1.7690 h1        1 MOL      0.059581
     29 H10        -1.0270    5.0510   -0.2280 hc        1 MOL     -0.001657
     30 H11        -0.2060    4.6250    1.9310 hc        1 MOL     -0.010937
     31 H12        -1.0160    6.0370    2.5660 hc        1 MOL     -0.010937
     32 H13        -2.4520    7.2100   -0.7430 hc        1 MOL      0.068278
     33 H14        -1.9370    7.6900    0.8240 hc        1 MOL      0.068278
     34 H15        -0.7380    7.4570   -0.5450 hc        1 MOL      0.068278
     35 H16         1.2910    6.3020    0.5680 hc        1 MOL     -0.051273
     36 H17         0.6170    7.4250    1.7340 hc        1 MOL     -0.051273
     37 H18         1.5920    6.2000    2.3140 hc        1 MOL     -0.051273
     38 N3         -3.6460    4.2260   -1.1850 n         1 MOL     -0.428999
     39 C13        -4.5350    4.0820   -2.3760 c3        1 MOL      0.031339
     40 C14        -5.8860    3.3330   -2.1380 c         1 MOL      0.405014
     41 O6         -6.8160    3.3990   -2.9450 o         1 MOL     -0.521087
     42 C15        -3.8140    3.5910   -3.6430 c3        1 MOL     -0.156011
     43 C16        -3.3300    2.1030   -3.6190 c         1 MOL      0.802979
     44 O7         -3.4950    1.4000   -2.6010 o         1 MOL     -0.731407
     45 O8         -2.7620    1.7250   -4.6620 o         1 MOL     -0.731407
     46 H19        -2.6890    3.8930   -1.2750 hn        1 MOL      0.300479
     47 H20        -4.9050    5.0630   -2.6480 h1        1 MOL      0.060585
     48 H21        -2.9280    4.2010   -3.8130 hc        1 MOL      0.029138
     49 H22        -4.5510    3.7380   -4.4260 hc        1 MOL      0.029138
     50 N4         -5.9820    2.6780   -0.9550 n         1 MOL     -0.096136
     51 C17        -7.1720    2.0180   -0.4090 c3        1 MOL     -0.277342
     52 C18        -7.4030    0.7630   -1.2630 c         1 MOL      0.638467
     53 O9         -8.4470    0.7160   -1.9530 o         1 MOL     -0.630071
     54 H23        -5.1550    2.6120   -0.3730 hn        1 MOL      0.248961
     55 H24        -8.0210    2.6910   -0.4990 h1        1 MOL      0.103604
     56 H25        -7.0680    1.8450    0.6690 h1        1 MOL      0.103604
     57 N5         -6.6120   -0.2730   -1.1870 n         1 MOL     -0.283646
     58 C19        -6.9040   -1.5110   -1.9170 c3        1 MOL      0.091514
     59 C20        -7.0530   -2.6460   -0.8980 c         1 MOL      0.349812
     60 O10        -7.3840   -3.7480   -1.2510 o         1 MOL     -0.526230
     61 C21        -5.7500   -1.8540   -2.8810 c3        1 MOL     -0.276815
     62 C22        -4.4060   -1.9600   -2.2480 c         1 MOL      0.917090
     63 O11        -4.1750   -1.9210   -1.0070 o         1 MOL     -0.809496
     64 O12        -3.3450   -1.8680   -2.9820 o         1 MOL     -0.809496
     65 H26        -5.8080   -0.2170   -0.5740 hn        1 MOL      0.089830
     66 H27        -7.7590   -1.3880   -2.5870 h1        1 MOL      0.098437
     67 H28        -5.7170   -1.0990   -3.6650 hc        1 MOL      0.090552
     68 H29        -6.0010   -2.8410   -3.2860 hc        1 MOL      0.090552
     69 N6         -6.7730   -2.4250    0.4120 n         1 MOL     -0.201746
     70 C23        -6.7900   -3.3690    1.5300 c3        1 MOL     -0.023101
     71 C24        -5.5010   -4.0980    1.7150 c         1 MOL      0.422077
     72 O13        -5.5050   -5.1720    2.3320 o         1 MOL     -0.604492
     73 H30        -6.3720   -1.5070    0.5640 hn        1 MOL      0.126834
     74 H31        -7.6740   -3.9960    1.5990 h1        1 MOL      0.070278
     75 H32        -6.8410   -2.8250    2.4730 h1        1 MOL      0.070278
     76 N7         -4.3400   -3.6560    1.1280 n         1 MOL     -0.077960
     77 C25        -3.0660   -4.2300    1.3090 c3        1 MOL     -0.045232
     78 C26        -2.0080   -3.0900    1.4420 c         1 MOL      0.400355
     79 O14        -2.2500   -1.9540    0.9890 o         1 MOL     -0.494598
     80 C27        -2.7350   -5.1180    0.1350 c3        1 MOL      0.119256
     81 C28        -3.6580   -6.3760    0.0060 c3        1 MOL     -0.261440
     82 C29        -4.8660   -6.1780   -0.9050 c         1 MOL      0.609293
     83 N8         -6.0540   -6.4510   -0.4460 n         1 MOL     -0.804108
     84 O15        -4.7420   -5.5680   -1.9730 o         1 MOL     -0.545810
     85 H33        -4.4410   -2.7770    0.6460 hn        1 MOL      0.237324
     86 H34        -2.9890   -4.7420    2.2650 h1        1 MOL      0.045955
     87 H35        -1.6870   -5.4090    0.1880 hc        1 MOL      0.002066
     88 H36        -2.8590   -4.5570   -0.7900 hc        1 MOL      0.002066
     89 H37        -4.0330   -6.7730    0.9480 hc        1 MOL      0.053652
     90 H38        -2.9830   -7.1310   -0.4020 hc        1 MOL      0.053652
     91 H39        -6.2160   -6.9550    0.4080 hn        1 MOL      0.377449
     92 H40        -6.7450   -5.8780   -0.9130 hn        1 MOL      0.377449
     93 N9         -0.8010   -3.4230    1.9870 n         1 MOL     -0.476527
     94 C30         0.2780   -2.4200    2.2790 c3        1 MOL      0.027410
     95 C31         1.4590   -2.8510    1.4290 c         1 MOL      0.306372
     96 O16         2.0560   -3.8940    1.6600 o         1 MOL     -0.543527
     97 C32         0.5290   -2.4300    3.8230 c3        1 MOL      0.359807
     98 C33         1.9070   -1.8400    4.1570 c3        1 MOL     -0.313921
     99 C34        -0.5700   -1.6560    4.5870 c3        1 MOL     -0.313921
    100 H41        -0.6320   -4.4080    2.1430 hn        1 MOL      0.304884
    101 H42        -0.0390   -1.4260    1.9820 h1        1 MOL      0.151814
    102 H43         0.5380   -3.4660    4.1550 hc        1 MOL     -0.052640
    103 H44         2.1630   -1.9190    5.2110 hc        1 MOL      0.055836
    104 H45         2.6880   -2.3670    3.6100 hc        1 MOL      0.055836
    105 H46         1.8900   -0.8010    3.8200 hc        1 MOL      0.055836
    106 H47        -0.6010   -0.6030    4.3060 hc        1 MOL      0.055836
    107 H48        -1.5580   -2.0870    4.4240 hc        1 MOL      0.055836
    108 H49        -0.3040   -1.7880    5.6330 hc        1 MOL      0.055836
    109 N10         1.6620   -2.1250    0.3330 n         1 MOL     -0.002042
    110 C35         2.8070   -2.3680   -0.5480 c3        1 MOL     -0.007044
    111 C36         4.1050   -1.9190    0.0850 c         1 MOL      0.174334
    112 O17         4.1420   -1.0780    1.0310 o         1 MOL     -0.249437
    113 C37         2.6180   -1.4740   -1.8000 c3        1 MOL     -0.288344
    114 C38         3.5180   -1.6600   -3.0050 c         1 MOL      0.725992
    115 N11         2.9270   -2.0860   -4.0700 n         1 MOL     -0.804793
    116 O18         4.7230   -1.5090   -3.0480 o         1 MOL     -0.560968
    117 H50         1.1560   -1.2620    0.1730 hn        1 MOL      0.267223
    118 H51         2.7630   -3.4220   -0.8520 h1        1 MOL      0.072768
    119 H52         2.6980   -0.4140   -1.5580 hc        1 MOL      0.070961
    120 H53         1.5600   -1.5990   -2.0340 hc        1 MOL      0.070961
    121 H54         1.9260   -2.1970   -3.9840 hn        1 MOL      0.381635
    122 H55         3.4280   -2.2400   -4.9360 hn        1 MOL      0.381635
    123 N12         5.2420   -2.4160   -0.4210 n         1 MOL     -0.278124
    124 C39         6.5700   -2.0240    0.0330 c3        1 MOL      0.027475
    125 C40         6.7240   -0.5120    0.0090 c         1 MOL      0.749067
    126 O19         7.1270    0.0450    1.0010 o         1 MOL     -0.570271
    127 C41         7.6580   -2.7220   -0.8140 c3        1 MOL     -0.057728
    128 C42         9.0970   -2.2760   -0.5540 ca        1 MOL     -0.109883
    129 C43         9.6540   -2.7450    0.6830 ca        1 MOL     -0.082538
    130 C44         9.7320   -1.3790   -1.4380 ca        1 MOL     -0.082538
    131 C45        10.9820   -2.4500    0.9890 ca        1 MOL     -0.309558
    132 C46        11.1280   -1.0390   -1.0760 ca        1 MOL     -0.309558
    133 C47        11.7560   -1.6100    0.1180 ca        1 MOL      0.419393
    134 O20        13.0530   -1.3340    0.3140 oh        1 MOL     -0.583022
    135 H56         5.0920   -3.0450   -1.1990 hn        1 MOL      0.218150
    136 H57         6.7050   -2.4150    1.0470 h1        1 MOL      0.052794
    137 H58         7.4470   -2.7000   -1.8790 hc        1 MOL      0.037057
    138 H59         7.5640   -3.7790   -0.5900 hc        1 MOL      0.037057
    139 H60         9.1080   -3.4460    1.2880 ha        1 MOL      0.135796
    140 H61         9.2840   -1.2060   -2.4070 ha        1 MOL      0.135796
    141 H62        11.4220   -2.7960    1.9060 ha        1 MOL      0.144232
    142 H63        11.7400   -0.4540   -1.7430 ha        1 MOL      0.144232
    143 H64        13.5900   -0.7670   -0.2480 ho        1 MOL      0.415204
    144 N13         6.3170    0.1530   -1.1170 n         1 MOL     -0.477491
    145 C48         6.2060    1.5950   -1.1350 c3        1 MOL     -0.033093
    146 C49         5.4050    2.2650   -0.0030 c         1 MOL      0.246766
    147 O21         5.8250    3.3770    0.4340 o         1 MOL     -0.511693
    148 C50         5.9420    2.0570   -2.5890 c3        1 MOL     -0.017817
    149 C51         7.0180    1.5830   -3.6020 c3        1 MOL     -0.214770
    150 C52         6.5470    2.0600   -5.0130 c         1 MOL      0.719461
    151 O22         6.1020    3.2210   -5.1870 o         1 MOL     -0.743811
    152 O23         6.7640    1.2720   -6.0020 o         1 MOL     -0.743811
    153 H65         5.8490   -0.3290   -1.8750 hn        1 MOL      0.340769
    154 H66         7.2400    1.8990   -0.9410 h1        1 MOL      0.089855
    155 H67         6.0760    3.1430   -2.5840 hc        1 MOL      0.046118
    156 H68         4.9450    1.7540   -2.9170 hc        1 MOL      0.046118
    157 H69         7.0030    0.4870   -3.5690 hc        1 MOL      0.026313
    158 H70         8.0280    1.9850   -3.4320 hc        1 MOL      0.026313
    159 N14         4.3240    1.7150    0.5210 n         1 MOL      0.069342
    160 C53         3.5610    2.2060    1.6900 c3        1 MOL     -0.197203
    161 C54         4.3180    1.9010    3.0140 c         1 MOL      0.480674
    162 O24         4.2580    2.7260    3.9550 o         1 MOL     -0.594576
    163 C55         2.1230    1.6100    1.5720 c3        1 MOL      0.272081
    164 C56         1.3580    2.1640    0.3350 c3        1 MOL     -0.073881
    165 C57         0.0470    1.4350    0.0310 c         1 MOL      0.836269
    166 O25        -0.9880    2.0430   -0.3050 o         1 MOL     -0.804308
    167 O26         0.0460    0.1680    0.1470 o         1 MOL     -0.804308
    168 H71         3.9230    0.9080    0.0700 hn        1 MOL      0.073240
    169 H72         3.4530    3.2830    1.6100 h1        1 MOL      0.098135
    170 H73         1.6730    1.7950    2.5400 hc        1 MOL     -0.042694
    171 H74         2.2500    0.5340    1.5540 hc        1 MOL     -0.042694
    172 H75         2.0210    2.1210   -0.5190 hc        1 MOL     -0.017246
    173 H76         1.0640    3.2010    0.5270 hc        1 MOL     -0.017246
    174 N15         5.0510    0.8300    3.1520 n         1 MOL      0.025925
    175 C58         5.9400    0.3700    4.2880 c3        1 MOL     -0.407295
    176 H77         6.9610    0.7070    4.1080 h1        1 MOL      0.138033
    177 H78         5.5790    0.7910    5.2260 h1        1 MOL      0.138033
    178 H79         5.9230   -0.7180    4.3460 h1        1 MOL      0.138033
    179 H80         5.0580    0.2170    2.3570 hn        1 MOL     -0.013825
    180 Ca1        -2.2430   -0.2010   -1.0350 Ca        1 MOL      1.754400
    181 O27        -0.6940    0.2440   -3.0780 oh        1 MOL     -0.891358
    182 H81         0.1300    0.6700   -3.3370 ho        1 MOL      0.415230
    183 H82        -1.2970    0.4160   -3.8050 ho        1 MOL      0.415230
    184 O28        -0.9980   -2.6960   -1.7360 oh        1 MOL     -0.891358
    185 H83        -1.8930   -2.5620   -2.0390 ho        1 MOL      0.415230
    186 H84        -0.6030   -3.2610   -2.4060 ho        1 MOL      0.415230
@<TRIPOS>BOND
     1    1    2 1   
     2    1    4 1   
     3    1    5 1   
     4    1    6 1   
     5    2    3 2   
     6    2    7 1   
     7    7    8 1   
     8    7   15 1   
     9    8    9 1   
    10    8   11 1   
    11    8   16 1   
    12    9   10 2   
    13    9   19 1   
    14   11   12 1   
    15   11   17 1   
    16   11   18 1   
    17   12   13 1   
    18   12   14 1   
    19   19   20 1   
    20   19   27 1   
    21   20   21 1   
    22   20   23 1   
    23   20   28 1   
    24   21   22 2   
    25   21   38 1   
    26   23   24 1   
    27   23   25 1   
    28   23   29 1   
    29   24   26 1   
    30   24   30 1   
    31   24   31 1   
    32   25   32 1   
    33   25   33 1   
    34   25   34 1   
    35   26   35 1   
    36   26   36 1   
    37   26   37 1   
    38   38   39 1   
    39   38   46 1   
    40   39   40 1   
    41   39   42 1   
    42   39   47 1   
    43   40   41 2   
    44   40   50 1   
    45   42   43 1   
    46   42   48 1   
    47   42   49 1   
    48   43   44 1   
    49   43   45 1   
    50   50   51 1   
    51   50   54 1   
    52   51   52 1   
    53   51   55 1   
    54   51   56 1   
    55   52   53 2   
    56   52   57 1   
    57   57   58 1   
    58   57   65 1   
    59   58   59 1   
    60   58   61 1   
    61   58   66 1   
    62   59   60 2   
    63   59   69 1   
    64   61   62 1   
    65   61   67 1   
    66   61   68 1   
    67   62   63 1   
    68   62   64 1   
    69   69   70 1   
    70   69   73 1   
    71   70   71 1   
    72   70   74 1   
    73   70   75 1   
    74   71   72 2   
    75   71   76 1   
    76   76   77 1   
    77   76   85 1   
    78   77   78 1   
    79   77   80 1   
    80   77   86 1   
    81   78   79 2   
    82   78   93 1   
    83   80   81 1   
    84   80   87 1   
    85   80   88 1   
    86   81   82 1   
    87   81   89 1   
    88   81   90 1   
    89   82   83 1   
    90   82   84 2   
    91   83   91 1   
    92   83   92 1   
    93   93   94 1   
    94   93  100 1   
    95   94   95 1   
    96   94   97 1   
    97   94  101 1   
    98   95   96 2   
    99   95  109 1   
   100   97   98 1   
   101   97   99 1   
   102   97  102 1   
   103   98  103 1   
   104   98  104 1   
   105   98  105 1   
   106   99  106 1   
   107   99  107 1   
   108   99  108 1   
   109  109  110 1   
   110  109  117 1   
   111  110  111 1   
   112  110  113 1   
   113  110  118 1   
   114  111  112 2   
   115  111  123 1   
   116  113  114 1   
   117  113  119 1   
   118  113  120 1   
   119  114  115 1   
   120  114  116 2   
   121  115  121 1   
   122  115  122 1   
   123  123  124 1   
   124  123  135 1   
   125  124  125 1   
   126  124  127 1   
   127  124  136 1   
   128  125  126 2   
   129  125  144 1   
   130  127  128 1   
   131  127  137 1   
   132  127  138 1   
   133  128  129 ar  
   134  128  130 ar  
   135  129  131 ar  
   136  129  139 1   
   137  130  132 ar  
   138  130  140 1   
   139  131  133 ar  
   140  131  141 1   
   141  132  133 ar  
   142  132  142 1   
   143  133  134 1   
   144  134  143 1   
   145  144  145 1   
   146  144  153 1   
   147  145  146 1   
   148  145  148 1   
   149  145  154 1   
   150  146  147 2   
   151  146  159 1   
   152  148  149 1   
   153  148  155 1   
   154  148  156 1   
   155  149  150 1   
   156  149  157 1   
   157  149  158 1   
   158  150  151 1   
   159  150  152 1   
   160  159  160 1   
   161  159  168 1   
   162  160  161 1   
   163  160  163 1   
   164  160  169 1   
   165  161  162 2   
   166  161  174 1   
   167  163  164 1   
   168  163  170 1   
   169  163  171 1   
   170  164  165 1   
   171  164  172 1   
   172  164  173 1   
   173  165  166 1   
   174  165  167 1   
   175  174  175 1   
   176  174  179 1   
   177  175  176 1   
   178  175  177 1   
   179  175  178 1   
   180  181  182 1   
   181  181  183 1   
   182  184  185 1   
   183  184  186 1   
@<TRIPOS>SUBSTRUCTURE
     1 MOL         1 TEMP              0 ****  ****    0 ROOT
