@<TRIPOS>MOLECULE
MOL
  179   176     1     0     0
SMALL
resp


@<TRIPOS>ATOM
      1 C1          1.8880    2.5690    6.8710 c3        1 MOL     -0.335269
      2 C2          1.8680    2.2290    5.3970 c         1 MOL      0.781711
      3 O1          2.8550    1.6760    4.9350 o         1 MOL     -0.579504
      4 H1          1.0510    2.0800    7.3680 hc        1 MOL      0.081128
      5 H2          2.8240    2.2240    7.3110 hc        1 MOL      0.081128
      6 H3          1.8040    3.6490    6.9960 hc        1 MOL      0.081128
      7 N1          0.7810    2.5570    4.6970 n         1 MOL     -0.624831
      8 C3          0.5860    2.3660    3.2690 c3        1 MOL      0.119253
      9 C4          0.8710    3.6900    2.4670 c         1 MOL      0.500873
     10 O2          0.5780    4.7970    2.9600 o         1 MOL     -0.534504
     11 C5         -0.8990    1.9680    2.9650 c3        1 MOL     -0.097259
     12 C6         -1.1440    1.6620    1.4390 c         1 MOL      0.806845
     13 O3         -2.2950    1.3840    1.0530 o         1 MOL     -0.751427
     14 O4         -0.1710    1.5170    0.6620 o         1 MOL     -0.751427
     15 H4         -0.0380    2.9960    5.0960 hn        1 MOL      0.313226
     16 H5          1.3040    1.6080    2.9480 h1        1 MOL      0.039971
     17 H6         -1.5610    2.7520    3.3460 hc        1 MOL      0.035780
     18 H7         -1.1450    1.0550    3.5060 hc        1 MOL      0.035780
     19 N2          1.3940    3.5910    1.2520 n         1 MOL     -0.275758
     20 C7          1.7140    4.7740    0.4020 c3        1 MOL     -0.198522
     21 C8          0.5580    5.5190   -0.2870 c         1 MOL      0.585499
     22 O5          0.6600    6.7480   -0.5140 o         1 MOL     -0.575678
     23 C9          2.7160    4.2140   -0.6790 c3        1 MOL      0.054403
     24 C10         3.6660    5.2750   -1.2880 c3        1 MOL     -0.052207
     25 C11         4.5680    4.7010   -2.4030 c3        1 MOL      0.044648
     26 C12         5.7790    5.5910   -2.7260 c3        1 MOL     -0.035972
     27 N3          6.5520    4.9820   -3.8700 n4        1 MOL     -0.267392
     28 H8          1.6230    2.6980    0.8350 hn        1 MOL      0.189089
     29 H9          2.2080    5.5620    0.9650 h1        1 MOL      0.137266
     30 H10         2.2150    3.7200   -1.5130 hc        1 MOL      0.036648
     31 H11         3.3480    3.4730   -0.2020 hc        1 MOL      0.036648
     32 H12         4.2660    5.6810   -0.4730 hc        1 MOL      0.025722
     33 H13         3.1510    6.1060   -1.7650 hc        1 MOL      0.025722
     34 H14         3.9510    4.4280   -3.2630 hc        1 MOL      0.025830
     35 H15         5.0580    3.7950   -2.0420 hc        1 MOL      0.025830
     36 H16         6.4140    5.6850   -1.8440 hx        1 MOL      0.105048
     37 H17         5.4890    6.5910   -3.0440 hx        1 MOL      0.105048
     38 H18         6.1200    5.0590   -4.7820 hn        1 MOL      0.299171
     39 H19         7.4400    5.4590   -3.9410 hn        1 MOL      0.299171
     40 H20         6.8210    4.0080   -3.9340 hn        1 MOL      0.299171
     41 N4         -0.5500    4.8280   -0.4440 n         1 MOL     -0.427895
     42 C13        -1.7740    5.5370   -0.9780 c3        1 MOL      0.164098
     43 C14        -2.9910    5.2450   -0.0510 c         1 MOL      0.436694
     44 O6         -3.8420    6.1430    0.0940 o         1 MOL     -0.540953
     45 C15        -2.1440    5.1230   -2.3860 c3        1 MOL     -0.371746
     46 C16        -2.2950    3.6040   -2.5800 c         1 MOL      0.893018
     47 O7         -2.0850    2.8150   -1.6750 o         1 MOL     -0.748905
     48 O8         -2.6920    3.2240   -3.7550 o         1 MOL     -0.748905
     49 H21        -0.5790    3.8680   -0.1200 hn        1 MOL      0.310385
     50 H22        -1.6650    6.6200   -0.9110 h1        1 MOL      0.090578
     51 H23        -1.4340    5.4770   -3.1280 hc        1 MOL      0.102573
     52 H24        -3.0900    5.6300   -2.5890 hc        1 MOL      0.102573
     53 N5         -3.0270    4.1020    0.6460 n         1 MOL      0.001552
     54 C17        -4.1440    3.8390    1.5280 c3        1 MOL     -0.233190
     55 C18        -5.3160    3.0840    0.9050 c         1 MOL      0.634257
     56 O9         -6.4640    3.1210    1.3470 o         1 MOL     -0.615586
     57 H25        -2.4140    3.3490    0.3870 hn        1 MOL     -0.155177
     58 H26        -4.5930    4.7690    1.9020 h1        1 MOL      0.112200
     59 H27        -3.8770    3.1830    2.3590 h1        1 MOL      0.112200
     60 N6         -5.0840    2.4000   -0.2180 n         1 MOL     -0.216582
     61 C19        -6.1680    1.7830   -0.9500 c3        1 MOL     -0.186530
     62 C20        -6.7460    0.5430   -0.2930 c         1 MOL      0.519486
     63 O10        -7.2910   -0.2890   -1.0120 o         1 MOL     -0.548390
     64 C21        -5.5950    1.4960   -2.3070 c3        1 MOL     -0.136776
     65 C22        -4.6360    0.3320   -2.2810 c         1 MOL      0.671285
     66 N7         -4.8540   -0.4630   -3.2910 n         1 MOL     -0.896092
     67 O11        -3.8480    0.0260   -1.4130 o         1 MOL     -0.569546
     68 H28        -4.1120    2.3970   -0.4790 hn        1 MOL      0.163482
     69 H29        -6.9380    2.5490   -1.0380 h1        1 MOL      0.147484
     70 H30        -5.0600    2.3900   -2.6280 hc        1 MOL      0.093425
     71 H31        -6.3630    1.3050   -3.0600 hc        1 MOL      0.093425
     72 H32        -5.6700   -0.3670   -3.8690 hn        1 MOL      0.403206
     73 H33        -4.3150   -1.3250   -3.2440 hn        1 MOL      0.403206
     74 N8         -6.4670    0.2950    1.0030 n         1 MOL     -0.238026
     75 C23        -6.9450   -0.9310    1.6940 c3        1 MOL     -0.391972
     76 C24        -5.9870   -2.0430    1.7200 c         1 MOL      0.849042
     77 O12        -6.2410   -2.9120    2.4850 o         1 MOL     -0.606719
     78 H34        -6.0680    1.0520    1.5440 hn        1 MOL      0.273996
     79 H35        -7.8570   -1.2830    1.2090 h1        1 MOL      0.159028
     80 H36        -7.0830   -0.6440    2.7380 h1        1 MOL      0.159028
     81 N9         -4.8390   -1.8940    1.0830 n         1 MOL     -0.669168
     82 C25        -3.7850   -2.8840    0.9670 c3        1 MOL      0.349531
     83 C26        -2.3600   -2.4200    0.9510 c         1 MOL      0.251774
     84 O13        -2.0180   -1.4720    0.2980 o         1 MOL     -0.298266
     85 C27        -3.9630   -3.6510   -0.3830 c3        1 MOL      0.226937
     86 C28        -5.3070   -4.3440   -0.6780 ca        1 MOL     -0.188114
     87 C29        -5.6700   -5.6050   -0.1000 ca        1 MOL     -0.109491
     88 C30        -6.2250   -3.6810   -1.5520 ca        1 MOL     -0.109491
     89 C31        -7.0010   -6.0550   -0.2560 ca        1 MOL     -0.275725
     90 C32        -7.5360   -4.0900   -1.6590 ca        1 MOL     -0.275725
     91 C33        -7.9390   -5.2230   -0.9400 ca        1 MOL      0.401375
     92 O14        -9.1870   -5.6140   -1.1320 oh        1 MOL     -0.499650
     93 H37        -4.7880   -1.1030    0.4580 hn        1 MOL      0.285522
     94 H38        -3.8540   -3.6580    1.7370 h1        1 MOL     -0.005996
     95 H39        -3.1890   -4.4160   -0.3410 hc        1 MOL     -0.059716
     96 H40        -3.7690   -2.9370   -1.1890 hc        1 MOL     -0.059716
     97 H41        -4.9500   -6.2320    0.4040 ha        1 MOL      0.142089
     98 H42        -5.9930   -2.8380   -2.1820 ha        1 MOL      0.142089
     99 H43        -7.3700   -7.0060    0.0790 ha        1 MOL      0.152120
    100 H44        -8.1750   -3.6040   -2.3940 ha        1 MOL      0.152120
    101 H45        -9.6610   -4.9760   -1.6690 ho        1 MOL      0.367275
    102 N10        -1.4540   -3.0560    1.6590 n         1 MOL     -0.397416
    103 C34        -0.0280   -2.7640    1.6480 c3        1 MOL      0.106529
    104 C35         0.7660   -3.9460    1.0630 c         1 MOL      0.407902
    105 O15         0.5760   -5.1160    1.3110 o         1 MOL     -0.518008
    106 C36         0.5030   -2.3540    3.0820 c3        1 MOL      0.074986
    107 C37         1.9070   -1.6290    2.8410 c3        1 MOL      0.057970
    108 C38         0.7290   -3.5820    4.0360 c3        1 MOL     -0.352294
    109 C39         2.5160   -1.2540    4.1750 c3        1 MOL     -0.262316
    110 H46        -1.8790   -3.7390    2.2850 hn        1 MOL      0.283256
    111 H47         0.2580   -1.9170    1.0180 h1        1 MOL     -0.086386
    112 H48        -0.1300   -1.5800    3.5090 hc        1 MOL      0.063289
    113 H49         1.6100   -0.7210    2.3160 hc        1 MOL     -0.001797
    114 H50         2.5940   -2.2390    2.2470 hc        1 MOL     -0.001797
    115 H51         1.6930   -4.0570    3.8730 hc        1 MOL      0.093280
    116 H52         0.7300   -3.3620    5.1050 hc        1 MOL      0.093280
    117 H53        -0.0870   -4.2870    3.9100 hc        1 MOL      0.093280
    118 H54         1.8300   -0.6290    4.7440 hc        1 MOL      0.065751
    119 H55         2.7360   -2.1570    4.7510 hc        1 MOL      0.065751
    120 H56         3.4990   -0.7960    4.1260 hc        1 MOL      0.065751
    121 N11         1.7570   -3.5790    0.1860 n         1 MOL     -0.082354
    122 C40         2.6340   -4.4280   -0.6050 c3        1 MOL     -0.004467
    123 C41         4.0870   -4.1750   -0.2990 c         1 MOL      0.363515
    124 O16         4.4220   -3.1960    0.4040 o         1 MOL     -0.325658
    125 C42         2.2400   -4.2950   -2.0820 c3        1 MOL      0.058140
    126 O17         2.5120   -2.9450   -2.5340 oh        1 MOL     -0.564759
    127 H57         1.9150   -2.5860    0.2430 hn        1 MOL      0.087873
    128 H58         2.4250   -5.4600   -0.3260 h1        1 MOL      0.048443
    129 H59         1.1850   -4.5340   -2.1960 h1        1 MOL      0.052423
    130 H60         2.8310   -4.9670   -2.7020 h1        1 MOL      0.052423
    131 H61         1.8780   -2.3740   -2.1050 ho        1 MOL      0.374056
    132 N12         4.9310   -5.0390   -0.8440 n         1 MOL     -0.360558
    133 C43         6.3740   -5.0660   -0.5590 c3        1 MOL      0.047458
    134 C44         6.9860   -3.7080   -0.8830 c         1 MOL      0.584306
    135 O18         7.7340   -3.2480   -0.0510 o         1 MOL     -0.538591
    136 C45         7.1230   -6.2190   -1.2880 c3        1 MOL     -0.307477
    137 H62         4.5430   -5.6540   -1.5530 hn        1 MOL      0.278553
    138 H63         6.4720   -5.1960    0.5170 h1        1 MOL      0.101412
    139 H64         7.2620   -6.0720   -2.3620 hc        1 MOL      0.100318
    140 H65         8.0580   -6.3010   -0.7360 hc        1 MOL      0.100318
    141 H66         6.5470   -7.1320   -1.1540 hc        1 MOL      0.100318
    142 N13         6.7170   -3.0760   -1.9940 n         1 MOL     -0.459050
    143 C46         7.2920   -1.7690   -2.3580 c3        1 MOL      0.058648
    144 C47         6.9990   -0.7020   -1.3400 c         1 MOL      0.350974
    145 O19         7.8440    0.1220   -1.0870 o         1 MOL     -0.511648
    146 C48         6.6870   -1.4090   -3.7470 c3        1 MOL     -0.239646
    147 H67         5.9820   -3.4460   -2.5770 hn        1 MOL      0.276896
    148 H68         8.3610   -1.8470   -2.5620 h1        1 MOL      0.111318
    149 H69         6.9080   -2.2070   -4.4570 hc        1 MOL      0.074673
    150 H70         5.6330   -1.1370   -3.7020 hc        1 MOL      0.074673
    151 H71         7.2140   -0.6130   -4.2530 hc        1 MOL      0.074673
    152 N14         5.7690   -0.6480   -0.8360 n         1 MOL     -0.145768
    153 C49         5.2640    0.3540    0.1370 c3        1 MOL     -0.078226
    154 C50         5.7200    0.0150    1.5810 c         1 MOL      0.365286
    155 O20         6.1750    0.9270    2.3180 o         1 MOL     -0.543311
    156 C51         3.7170    0.4640   -0.0040 c3        1 MOL      0.026268
    157 C52         3.1800    0.5190   -1.4620 c3        1 MOL      0.011971
    158 C53         1.7000    0.2470   -1.5890 c         1 MOL      0.736395
    159 O21         1.0220    1.1050   -2.1840 o         1 MOL     -0.688771
    160 O22         1.2000   -0.8300   -1.1740 o         1 MOL     -0.688771
    161 H72         5.1590   -1.4000   -1.1200 hn        1 MOL      0.196211
    162 H73         5.6760    1.3290   -0.1440 h1        1 MOL      0.082582
    163 H74         3.4790    1.4180    0.4690 hc        1 MOL      0.023760
    164 H75         3.2740   -0.3830    0.5230 hc        1 MOL      0.023760
    165 H76         3.5760   -0.2240   -2.1650 hc        1 MOL     -0.060725
    166 H77         3.4620    1.4930   -1.8560 hc        1 MOL     -0.060725
    167 N15         5.8970   -1.2500    1.8920 n         1 MOL      0.137249
    168 C54         6.6180   -1.7370    3.0570 c3        1 MOL     -0.208495
    169 H78         7.5660   -1.2070    3.1440 h1        1 MOL      0.083562
    170 H79         6.0210   -1.5650    3.9530 h1        1 MOL      0.083562
    171 H80         6.8080   -2.8050    2.9460 h1        1 MOL      0.083562
    172 H81         5.4230   -1.8950    1.2680 hn        1 MOL     -0.025835
    173 Ca1        -1.2020    0.3820   -1.2700 Ca        1 MOL      1.645521
    174 O23        -1.1860   -1.8390   -2.8660 oh        1 MOL     -0.900104
    175 H82        -0.6000   -1.7510   -3.6200 ho        1 MOL      0.424484
    176 H83        -1.5440   -2.7270   -2.9440 ho        1 MOL      0.424484
    177 O24        -1.5640    0.9690   -3.9360 oh        1 MOL     -0.900104
    178 H84        -1.9370    1.8520   -3.8330 ho        1 MOL      0.424484
    179 H85        -2.0570    0.5870   -4.6670 ho        1 MOL      0.424484
@<TRIPOS>BOND
     1    1    2 1   
     2    1    4 1   
     3    1    5 1   
     4    1    6 1   
     5    2    3 2   
     6    2    7 1   
     7    7    8 1   
     8    7   15 1   
     9    8    9 1   
    10    8   11 1   
    11    8   16 1   
    12    9   10 2   
    13    9   19 1   
    14   11   12 1   
    15   11   17 1   
    16   11   18 1   
    17   12   13 1   
    18   12   14 1   
    19   19   20 1   
    20   19   28 1   
    21   20   21 1   
    22   20   23 1   
    23   20   29 1   
    24   21   22 2   
    25   21   41 1   
    26   23   24 1   
    27   23   30 1   
    28   23   31 1   
    29   24   25 1   
    30   24   32 1   
    31   24   33 1   
    32   25   26 1   
    33   25   34 1   
    34   25   35 1   
    35   26   27 1   
    36   26   36 1   
    37   26   37 1   
    38   27   38 1   
    39   27   39 1   
    40   27   40 1   
    41   41   42 1   
    42   41   49 1   
    43   42   43 1   
    44   42   45 1   
    45   42   50 1   
    46   43   44 2   
    47   43   53 1   
    48   45   46 1   
    49   45   51 1   
    50   45   52 1   
    51   46   47 1   
    52   46   48 1   
    53   53   54 1   
    54   53   57 1   
    55   54   55 1   
    56   54   58 1   
    57   54   59 1   
    58   55   56 2   
    59   55   60 1   
    60   60   61 1   
    61   60   68 1   
    62   61   62 1   
    63   61   64 1   
    64   61   69 1   
    65   62   63 2   
    66   62   74 1   
    67   64   65 1   
    68   64   70 1   
    69   64   71 1   
    70   65   66 1   
    71   65   67 2   
    72   66   72 1   
    73   66   73 1   
    74   74   75 1   
    75   74   78 1   
    76   75   76 1   
    77   75   79 1   
    78   75   80 1   
    79   76   77 2   
    80   76   81 1   
    81   81   82 1   
    82   81   93 1   
    83   82   83 1   
    84   82   85 1   
    85   82   94 1   
    86   83   84 2   
    87   83  102 1   
    88   85   86 1   
    89   85   95 1   
    90   85   96 1   
    91   86   87 ar  
    92   86   88 ar  
    93   87   89 ar  
    94   87   97 1   
    95   88   90 ar  
    96   88   98 1   
    97   89   91 ar  
    98   89   99 1   
    99   90   91 ar  
   100   90  100 1   
   101   91   92 1   
   102   92  101 1   
   103  102  103 1   
   104  102  110 1   
   105  103  104 1   
   106  103  106 1   
   107  103  111 1   
   108  104  105 2   
   109  104  121 1   
   110  106  107 1   
   111  106  108 1   
   112  106  112 1   
   113  107  109 1   
   114  107  113 1   
   115  107  114 1   
   116  108  115 1   
   117  108  116 1   
   118  108  117 1   
   119  109  118 1   
   120  109  119 1   
   121  109  120 1   
   122  121  122 1   
   123  121  127 1   
   124  122  123 1   
   125  122  125 1   
   126  122  128 1   
   127  123  124 2   
   128  123  132 1   
   129  125  126 1   
   130  125  129 1   
   131  125  130 1   
   132  126  131 1   
   133  132  133 1   
   134  132  137 1   
   135  133  134 1   
   136  133  136 1   
   137  133  138 1   
   138  134  135 2   
   139  134  142 1   
   140  136  139 1   
   141  136  140 1   
   142  136  141 1   
   143  142  143 1   
   144  142  147 1   
   145  143  144 1   
   146  143  146 1   
   147  143  148 1   
   148  144  145 2   
   149  144  152 1   
   150  146  149 1   
   151  146  150 1   
   152  146  151 1   
   153  152  153 1   
   154  152  161 1   
   155  153  154 1   
   156  153  156 1   
   157  153  162 1   
   158  154  155 2   
   159  154  167 1   
   160  156  157 1   
   161  156  163 1   
   162  156  164 1   
   163  157  158 1   
   164  157  165 1   
   165  157  166 1   
   166  158  159 1   
   167  158  160 1   
   168  167  168 1   
   169  167  172 1   
   170  168  169 1   
   171  168  170 1   
   172  168  171 1   
   173  174  175 1   
   174  174  176 1   
   175  177  178 1   
   176  177  179 1   
@<TRIPOS>SUBSTRUCTURE
     1 MOL         1 TEMP              0 ****  ****    0 ROOT
