@<TRIPOS>MOLECULE
MOL
  189   185     1     0     0
SMALL
resp


@<TRIPOS>ATOM
      1 C1          1.7430   -2.7080    6.2350 c3        1 MOL     -0.370728
      2 C2          1.5460   -2.6740    4.7520 c         1 MOL      0.776626
      3 O1          1.3020   -1.6200    4.1300 o         1 MOL     -0.610543
      4 H1          2.5650   -3.3820    6.4770 hc        1 MOL      0.094614
      5 H2          1.9790   -1.7060    6.5940 hc        1 MOL      0.094614
      6 H3          0.8300   -3.0620    6.7150 hc        1 MOL      0.094614
      7 N1          1.9080   -3.7380    4.0360 n         1 MOL     -0.666154
      8 C3          2.5200   -3.5360    2.7030 c3        1 MOL      0.292974
      9 C4          2.5500   -4.7010    1.7550 c         1 MOL      0.389842
     10 O2          2.8810   -5.8380    2.0660 o         1 MOL     -0.593888
     11 C5          3.9660   -3.1510    2.9600 c3        1 MOL     -0.179999
     12 C6          4.7300   -2.8480    1.6560 c         1 MOL      0.686201
     13 O3          4.2130   -2.2840    0.6650 o         1 MOL     -0.672419
     14 O4          5.9750   -2.9840    1.7360 o         1 MOL     -0.672419
     15 H4          2.1270   -4.5840    4.5440 hn        1 MOL      0.325665
     16 H5          1.9430   -2.7590    2.2150 h1        1 MOL      0.000496
     17 H6          4.5080   -3.9370    3.4760 hc        1 MOL      0.019873
     18 H7          3.9160   -2.2780    3.6070 hc        1 MOL      0.019873
     19 N2          2.1220   -4.5370    0.5180 n         1 MOL     -0.019239
     20 C7          1.9660   -5.5570   -0.5500 c3        1 MOL     -0.241743
     21 C8          2.5660   -5.1570   -1.8690 c         1 MOL      0.541665
     22 O5          2.4540   -5.7830   -2.8800 o         1 MOL     -0.573192
     23 C9          0.4600   -5.8670   -0.7520 c3        1 MOL      0.277482
     24 C10        -0.3770   -4.6260   -1.2030 c3        1 MOL      0.094626
     25 C11        -0.1640   -6.4430    0.5720 c3        1 MOL     -0.219068
     26 C12        -1.6070   -5.1270   -1.9790 c3        1 MOL     -0.397611
     27 H8          1.8460   -3.5760    0.3850 hn        1 MOL      0.095716
     28 H9          2.5030   -6.4610   -0.2580 h1        1 MOL      0.130899
     29 H10         0.4010   -6.6520   -1.5010 hc        1 MOL     -0.039773
     30 H11         0.2420   -3.9370   -1.7530 hc        1 MOL      0.023749
     31 H12        -0.7840   -4.0340   -0.3730 hc        1 MOL      0.023749
     32 H13        -0.2240   -5.6100    1.2810 hc        1 MOL      0.028834
     33 H14        -1.2360   -6.6050    0.6030 hc        1 MOL      0.028834
     34 H15         0.3180   -7.3120    1.0060 hc        1 MOL      0.028834
     35 H16        -1.2620   -5.5080   -2.9500 hc        1 MOL      0.089483
     36 H17        -2.2860   -5.7610   -1.4210 hc        1 MOL      0.089483
     37 H18        -2.0770   -4.1620   -2.1870 hc        1 MOL      0.089483
     38 N3          3.3460   -4.0730   -1.9480 n         1 MOL     -0.339019
     39 C13         4.1450   -3.6700   -3.1480 c3        1 MOL      0.067310
     40 C14         5.4910   -3.0470   -2.8740 c         1 MOL      0.375439
     41 O6          6.3100   -3.0710   -3.7100 o         1 MOL     -0.534892
     42 C15         3.3420   -2.7200   -4.0270 c3        1 MOL     -0.292051
     43 C16         2.8280   -1.4560   -3.2970 c         1 MOL      0.807139
     44 O7          3.2190   -1.1520   -2.1650 o         1 MOL     -0.721125
     45 O8          2.0640   -0.6850   -3.9740 o         1 MOL     -0.721125
     46 H19         3.3710   -3.4720   -1.1420 hn        1 MOL      0.119632
     47 H20         4.3280   -4.5450   -3.7720 h1        1 MOL      0.089731
     48 H21         2.4620   -3.2780   -4.3230 hc        1 MOL      0.087911
     49 H22         3.9380   -2.4850   -4.9050 hc        1 MOL      0.087911
     50 N4          5.6900   -2.4780   -1.7000 n         1 MOL     -0.083858
     51 C17         6.9950   -1.9490   -1.2720 c3        1 MOL     -0.310069
     52 C18         7.3620   -0.6380   -1.8630 c         1 MOL      0.498151
     53 O9          8.5680   -0.3090   -2.0400 o         1 MOL     -0.582542
     54 H23         4.9060   -2.3170   -1.0830 hn        1 MOL      0.118930
     55 H24         7.7360   -2.7040   -1.5400 h1        1 MOL      0.134633
     56 H25         6.8500   -1.8860   -0.1980 h1        1 MOL      0.134633
     57 N5          6.3190    0.1650   -2.1960 n         1 MOL     -0.162488
     58 C19         6.4680    1.5520   -2.7210 c3        1 MOL     -0.130378
     59 C20         6.8640    2.7350   -1.7420 c         1 MOL      0.436366
     60 O10         7.4310    3.7530   -2.1750 o         1 MOL     -0.563965
     61 C21         5.1460    1.8690   -3.4510 c3        1 MOL     -0.131308
     62 C22         3.9530    2.1150   -2.5350 c         1 MOL      0.840408
     63 O11         4.1080    1.9410   -1.2860 o         1 MOL     -0.723060
     64 O12         2.9130    2.5740   -2.9190 o         1 MOL     -0.723060
     65 H26         5.3730   -0.1740   -2.0900 hn        1 MOL      0.198409
     66 H27         7.3100    1.4390   -3.4010 h1        1 MOL      0.107180
     67 H28         4.8980    1.1290   -4.2170 hc        1 MOL      0.043144
     68 H29         5.2630    2.8010   -4.0150 hc        1 MOL      0.043144
     69 N6          6.5020    2.7130   -0.4610 n         1 MOL     -0.170667
     70 C23         6.8500    3.7330    0.5360 c3        1 MOL     -0.117536
     71 C24         5.6630    4.4710    1.2030 c         1 MOL      0.451039
     72 O13         5.8440    5.4390    1.9720 o         1 MOL     -0.599452
     73 H30         5.8120    1.9890   -0.3120 hn        1 MOL      0.119847
     74 H31         7.4290    4.6080    0.2090 h1        1 MOL      0.089491
     75 H32         7.4370    3.1960    1.2750 h1        1 MOL      0.089491
     76 N7          4.4330    4.0580    0.8960 n         1 MOL     -0.134403
     77 C25         3.1350    4.5180    1.4010 c3        1 MOL     -0.225103
     78 C26         2.1820    3.3470    1.6920 c         1 MOL      0.639609
     79 O14         2.3800    2.2920    1.1150 o         1 MOL     -0.590066
     80 C27         2.5650    5.4330    0.2980 c3        1 MOL      0.035142
     81 C28         3.2750    6.7600    0.0920 c3        1 MOL     -0.123380
     82 C29         2.4800    7.6990   -0.8280 c         1 MOL      0.572193
     83 N8          1.9960    7.2050   -1.9510 n         1 MOL     -0.753076
     84 O15         2.2100    8.8200   -0.4300 o         1 MOL     -0.585023
     85 H33         4.3990    3.2580    0.2790 hn        1 MOL      0.171285
     86 H34         3.1770    5.1620    2.2760 h1        1 MOL      0.101720
     87 H35         1.5260    5.7090    0.4760 hc        1 MOL      0.044707
     88 H36         2.5720    4.8510   -0.6140 hc        1 MOL      0.044707
     89 H37         4.2140    6.5880   -0.4360 hc        1 MOL      0.075637
     90 H38         3.4630    7.2580    1.0360 hc        1 MOL      0.075637
     91 H39         2.1140    6.2690   -2.3010 hn        1 MOL      0.355598
     92 H40         1.4380    7.8870   -2.4590 hn        1 MOL      0.355598
     93 N9          1.1570    3.6050    2.5520 n         1 MOL     -0.588924
     94 C30        -0.0130    2.7600    2.7830 c3        1 MOL      0.160224
     95 C31        -1.1860    3.2670    1.9140 c         1 MOL      0.504569
     96 O16        -1.2550    4.4780    1.6700 o         1 MOL     -0.579773
     97 C32        -0.4180    2.6150    4.2720 c3        1 MOL      0.097479
     98 C33        -1.8870    2.0590    4.5920 c3        1 MOL     -0.297823
     99 C34         0.5070    1.5760    4.9790 c3        1 MOL     -0.297823
    100 H41         1.0770    4.5540    2.8970 hn        1 MOL      0.300940
    101 H42         0.1820    1.7510    2.4260 h1        1 MOL      0.154446
    102 H43        -0.4090    3.6190    4.6940 hc        1 MOL      0.004269
    103 H44        -2.6660    2.7460    4.2560 hc        1 MOL      0.076247
    104 H45        -2.0630    1.0470    4.2470 hc        1 MOL      0.076247
    105 H46        -2.0100    1.9670    5.6720 hc        1 MOL      0.076247
    106 H47         0.5830    1.6520    6.0600 hc        1 MOL      0.076247
    107 H48         0.2480    0.5960    4.5840 hc        1 MOL      0.076247
    108 H49         1.4960    1.8650    4.6210 hc        1 MOL      0.076247
    109 N10        -2.1260    2.4300    1.4380 n         1 MOL     -0.166841
    110 C35        -3.3890    2.8500    0.7640 c3        1 MOL      0.041471
    111 C36        -4.6640    2.1160    1.3210 c         1 MOL      0.401060
    112 O17        -4.5390    1.0770    2.0440 o         1 MOL     -0.443393
    113 C37        -3.2100    2.7660   -0.7590 c3        1 MOL     -0.367767
    114 C38        -3.1350    1.3340   -1.3150 c         1 MOL      0.695578
    115 N11        -1.9790    0.8260   -1.7390 n         1 MOL     -0.691160
    116 O18        -4.1320    0.5710   -1.3050 o         1 MOL     -0.575246
    117 H50        -1.9160    1.4460    1.5810 hn        1 MOL      0.001047
    118 H51        -3.6460    3.8800    1.0430 h1        1 MOL      0.077090
    119 H52        -2.2490    3.1670   -1.0490 hc        1 MOL      0.126479
    120 H53        -3.9160    3.3000   -1.3850 hc        1 MOL      0.126479
    121 H54        -1.0940    1.3060   -1.6550 hn        1 MOL      0.349027
    122 H55        -1.8720   -0.1860   -1.7770 hn        1 MOL      0.349027
    123 N12        -5.8830    2.5210    0.8990 n         1 MOL     -0.339745
    124 C39        -7.2090    2.0700    1.2800 c3        1 MOL      0.050588
    125 C40        -7.4700    0.5140    1.1770 c         1 MOL      0.414000
    126 O19        -8.3720    0.0100    1.8250 o         1 MOL     -0.587108
    127 C41        -8.3040    2.8250    0.4950 c3        1 MOL     -0.102364
    128 C42        -8.2410    2.6090   -1.0340 ca        1 MOL      0.195734
    129 C43        -9.0150    1.5010   -1.5970 ca        1 MOL     -0.374290
    130 C44        -7.6810    3.5280   -1.8700 ca        1 MOL     -0.374290
    131 C45        -9.0890    1.3400   -2.9930 ca        1 MOL     -0.089000
    132 C46        -7.7130    3.3050   -3.2700 ca        1 MOL     -0.089000
    133 C47        -8.5020    2.3150   -3.8030 ca        1 MOL      0.267773
    134 O20        -8.7420    2.1960   -5.1420 oh        1 MOL     -0.548787
    135 H56        -5.8600    3.2040    0.1450 hn        1 MOL      0.217399
    136 H57        -7.4050    2.2740    2.3290 h1        1 MOL      0.061015
    137 H58        -8.2530    3.8750    0.8060 hc        1 MOL      0.048717
    138 H59        -9.3160    2.6610    0.8420 hc        1 MOL      0.048717
    139 H60        -9.4830    0.8450   -0.8910 ha        1 MOL      0.169339
    140 H61        -7.1770    4.4330   -1.5760 ha        1 MOL      0.169339
    141 H62        -9.6520    0.5050   -3.3730 ha        1 MOL      0.118494
    142 H63        -7.1820    4.0510   -3.8500 ha        1 MOL      0.118494
    143 H64        -9.4290    1.5910   -5.4060 ho        1 MOL      0.414720
    144 N13        -6.9910   -0.2060    0.1130 n         1 MOL     -0.012374
    145 C48        -7.1970   -1.6670   -0.0360 c3        1 MOL      0.079940
    146 C49        -6.0050   -2.4250    0.5300 c         1 MOL      0.357695
    147 O21        -6.1060   -3.6010    0.8600 o         1 MOL     -0.521050
    148 C50        -7.3960   -1.9830   -1.4820 c3        1 MOL     -0.057934
    149 C51        -6.1500   -1.9420   -2.3910 c3        1 MOL     -0.094338
    150 C52        -6.3850   -2.2730   -3.8900 c         1 MOL      0.696372
    151 O22        -5.9800   -1.5370   -4.7610 o         1 MOL     -0.737091
    152 O23        -6.9690   -3.3880   -4.1360 o         1 MOL     -0.737091
    153 H65        -6.2900    0.2790   -0.4290 hn        1 MOL      0.203220
    154 H66        -8.0610   -2.0550    0.4910 h1        1 MOL      0.034289
    155 H67        -8.1340   -1.2760   -1.8530 hc        1 MOL     -0.001927
    156 H68        -7.7830   -2.9920   -1.6650 hc        1 MOL     -0.001927
    157 H69        -5.3910   -2.6200   -2.0270 hc        1 MOL      0.025195
    158 H70        -5.7550   -0.9290   -2.2830 hc        1 MOL      0.025195
    159 N14        -4.8260   -1.7830    0.6010 n         1 MOL      0.068542
    160 C53        -3.7100   -2.3430    1.3920 c3        1 MOL     -0.500162
    161 C54        -3.8420   -2.3050    2.9130 c         1 MOL      0.537151
    162 O24        -3.1620   -2.9990    3.7000 o         1 MOL     -0.526576
    163 C55        -2.4410   -1.5550    0.9190 c3        1 MOL     -0.069154
    164 C56        -1.0820   -2.0050    1.5230 c3        1 MOL     -0.066913
    165 C57         0.0860   -1.3260    0.7670 c         1 MOL      0.749365
    166 O25         0.1180   -0.0760    0.7790 o         1 MOL     -0.749009
    167 O26         0.9760   -1.9710    0.1860 o         1 MOL     -0.749009
    168 H71        -4.7770   -0.8570    0.2030 hn        1 MOL     -0.131345
    169 H72        -3.5440   -3.4030    1.1500 h1        1 MOL      0.235800
    170 H73        -2.5900   -0.4920    1.1350 hc        1 MOL      0.148157
    171 H74        -2.4630   -1.5740   -0.1710 hc        1 MOL      0.148157
    172 H75        -1.0290   -3.0850    1.6090 hc        1 MOL      0.054359
    173 H76        -0.9460   -1.8000    2.5830 hc        1 MOL      0.054359
    174 N15        -4.8780   -1.4900    3.3480 n         1 MOL     -0.289428
    175 C58        -5.1050   -1.1090    4.7340 c3        1 MOL      0.055644
    176 H77        -4.3690   -1.5980    5.3710 h1        1 MOL      0.013697
    177 H78        -5.0100   -0.0280    4.8350 h1        1 MOL      0.013697
    178 H79        -6.1070   -1.4150    5.0360 h1        1 MOL      0.013697
    179 H80        -5.4120   -0.9570    2.6640 hn        1 MOL      0.236252
    180 Ca1         2.7330   -0.0390    0.0650 Ca        1 MOL      1.704727
    181 O27         5.1490    0.5200    1.1860 oh        1 MOL     -0.772376
    182 H81         4.8790    0.4380    2.0930 ho        1 MOL      0.383951
    183 H82         5.9730    0.0220    1.1260 ho        1 MOL      0.383951
    184 O28         2.7200    0.0370    2.7900 oh        1 MOL     -0.772376
    185 H83         3.3590    0.3020    3.4390 ho        1 MOL      0.383951
    186 H84         2.0270   -0.3980    3.2880 ho        1 MOL      0.383951
    187 O29         0.9930    0.8360   -1.8600 oh        1 MOL     -0.772376
    188 H85         1.1630    0.3030   -2.6370 ho        1 MOL      0.383951
    189 H86         1.4010    1.6790   -2.0470 ho        1 MOL      0.383951
@<TRIPOS>BOND
     1    1    2 1   
     2    1    4 1   
     3    1    5 1   
     4    1    6 1   
     5    2    3 2   
     6    2    7 1   
     7    7    8 1   
     8    7   15 1   
     9    8    9 1   
    10    8   11 1   
    11    8   16 1   
    12    9   10 2   
    13    9   19 1   
    14   11   12 1   
    15   11   17 1   
    16   11   18 1   
    17   12   13 1   
    18   12   14 1   
    19   19   20 1   
    20   19   27 1   
    21   20   21 1   
    22   20   23 1   
    23   20   28 1   
    24   21   22 2   
    25   21   38 1   
    26   23   24 1   
    27   23   25 1   
    28   23   29 1   
    29   24   26 1   
    30   24   30 1   
    31   24   31 1   
    32   25   32 1   
    33   25   33 1   
    34   25   34 1   
    35   26   35 1   
    36   26   36 1   
    37   26   37 1   
    38   38   39 1   
    39   38   46 1   
    40   39   40 1   
    41   39   42 1   
    42   39   47 1   
    43   40   41 2   
    44   40   50 1   
    45   42   43 1   
    46   42   48 1   
    47   42   49 1   
    48   43   44 1   
    49   43   45 1   
    50   50   51 1   
    51   50   54 1   
    52   51   52 1   
    53   51   55 1   
    54   51   56 1   
    55   52   53 2   
    56   52   57 1   
    57   57   58 1   
    58   57   65 1   
    59   58   59 1   
    60   58   61 1   
    61   58   66 1   
    62   59   60 2   
    63   59   69 1   
    64   61   62 1   
    65   61   67 1   
    66   61   68 1   
    67   62   63 1   
    68   62   64 1   
    69   69   70 1   
    70   69   73 1   
    71   70   71 1   
    72   70   74 1   
    73   70   75 1   
    74   71   72 2   
    75   71   76 1   
    76   76   77 1   
    77   76   85 1   
    78   77   78 1   
    79   77   80 1   
    80   77   86 1   
    81   78   79 2   
    82   78   93 1   
    83   80   81 1   
    84   80   87 1   
    85   80   88 1   
    86   81   82 1   
    87   81   89 1   
    88   81   90 1   
    89   82   83 1   
    90   82   84 2   
    91   83   91 1   
    92   83   92 1   
    93   93   94 1   
    94   93  100 1   
    95   94   95 1   
    96   94   97 1   
    97   94  101 1   
    98   95   96 2   
    99   95  109 1   
   100   97   98 1   
   101   97   99 1   
   102   97  102 1   
   103   98  103 1   
   104   98  104 1   
   105   98  105 1   
   106   99  106 1   
   107   99  107 1   
   108   99  108 1   
   109  109  110 1   
   110  109  117 1   
   111  110  111 1   
   112  110  113 1   
   113  110  118 1   
   114  111  112 2   
   115  111  123 1   
   116  113  114 1   
   117  113  119 1   
   118  113  120 1   
   119  114  115 1   
   120  114  116 2   
   121  115  121 1   
   122  115  122 1   
   123  123  124 1   
   124  123  135 1   
   125  124  125 1   
   126  124  127 1   
   127  124  136 1   
   128  125  126 2   
   129  125  144 1   
   130  127  128 1   
   131  127  137 1   
   132  127  138 1   
   133  128  129 ar  
   134  128  130 ar  
   135  129  131 ar  
   136  129  139 1   
   137  130  132 ar  
   138  130  140 1   
   139  131  133 ar  
   140  131  141 1   
   141  132  133 ar  
   142  132  142 1   
   143  133  134 1   
   144  134  143 1   
   145  144  145 1   
   146  144  153 1   
   147  145  146 1   
   148  145  148 1   
   149  145  154 1   
   150  146  147 2   
   151  146  159 1   
   152  148  149 1   
   153  148  155 1   
   154  148  156 1   
   155  149  150 1   
   156  149  157 1   
   157  149  158 1   
   158  150  151 1   
   159  150  152 1   
   160  159  160 1   
   161  159  168 1   
   162  160  161 1   
   163  160  163 1   
   164  160  169 1   
   165  161  162 2   
   166  161  174 1   
   167  163  164 1   
   168  163  170 1   
   169  163  171 1   
   170  164  165 1   
   171  164  172 1   
   172  164  173 1   
   173  165  166 1   
   174  165  167 1   
   175  174  175 1   
   176  174  179 1   
   177  175  176 1   
   178  175  177 1   
   179  175  178 1   
   180  181  182 1   
   181  181  183 1   
   182  184  185 1   
   183  184  186 1   
   184  187  188 1   
   185  187  189 1   
@<TRIPOS>SUBSTRUCTURE
     1 MOL         1 TEMP              0 ****  ****    0 ROOT
