@<TRIPOS>MOLECULE
MOL
  176   174     1     0     0
SMALL
resp


@<TRIPOS>ATOM
      1 C1          0.9710    3.4720    6.7320 c3        1 MOL     -0.287172
      2 C2          0.8850    2.8280    5.3210 c         1 MOL      0.728440
      3 O1          1.9010    2.3610    4.7620 o         1 MOL     -0.581939
      4 H1          2.0120    3.5040    7.0530 hc        1 MOL      0.071830
      5 H2          0.5710    4.4850    6.6950 hc        1 MOL      0.071830
      6 H3          0.3910    2.8780    7.4400 hc        1 MOL      0.071830
      7 N1         -0.3400    2.7760    4.7830 n         1 MOL     -0.603934
      8 C3         -0.6430    2.5820    3.3550 c3        1 MOL      0.268165
      9 C4         -0.4740    3.7930    2.4460 c         1 MOL      0.492337
     10 O2         -0.9140    4.8780    2.8720 o         1 MOL     -0.559695
     11 C5         -1.9660    1.7480    3.2780 c3        1 MOL     -0.374213
     12 C6         -2.2140    1.2090    1.8420 c         1 MOL      0.851370
     13 O3         -2.7860    0.0960    1.6630 o         1 MOL     -0.763298
     14 O4         -1.9760    1.8850    0.8140 o         1 MOL     -0.763298
     15 H4         -1.1620    3.0180    5.3260 hn        1 MOL      0.311339
     16 H5          0.0970    1.8450    3.0400 h1        1 MOL     -0.065625
     17 H6         -2.7480    2.4390    3.5790 hc        1 MOL      0.096907
     18 H7         -1.9030    0.8940    3.9590 hc        1 MOL      0.096907
     19 N2          0.1260    3.6610    1.2560 n         1 MOL     -0.284115
     20 C7          0.4090    4.7730    0.3280 c3        1 MOL     -0.221065
     21 C8         -0.7820    5.1570   -0.5320 c         1 MOL      0.616866
     22 O5         -0.7380    6.2610   -1.0440 o         1 MOL     -0.582890
     23 C9          1.6040    4.3840   -0.5620 c3        1 MOL      0.147921
     24 C10         2.1860    5.4810   -1.4640 c3        1 MOL     -0.086430
     25 C11         1.8170    5.3850   -3.0040 c3        1 MOL      0.034795
     26 C12         2.5500    6.4090   -3.8290 c3        1 MOL      0.041139
     27 N3          1.8990    6.6620   -5.1290 n4        1 MOL     -0.208874
     28 H8          0.5670    2.7720    1.0450 hn        1 MOL      0.255920
     29 H9          0.8040    5.6530    0.8250 h1        1 MOL      0.142400
     30 H10         1.3910    3.5240   -1.1950 hc        1 MOL      0.019584
     31 H11         2.3970    3.9550    0.0450 hc        1 MOL      0.019584
     32 H12         3.2640    5.3090   -1.3930 hc        1 MOL      0.035212
     33 H13         1.9480    6.4580   -1.0250 hc        1 MOL      0.035212
     34 H14         0.7710    5.6270   -3.1730 hc        1 MOL      0.007867
     35 H15         2.0600    4.3960   -3.3790 hc        1 MOL      0.007867
     36 H16         3.5330    5.9570   -4.0060 hx        1 MOL      0.060903
     37 H17         2.6230    7.3430   -3.2860 hx        1 MOL      0.060903
     38 H18         1.0210    7.1620   -5.1110 hn        1 MOL      0.288365
     39 H19         2.5490    7.2680   -5.6210 hn        1 MOL      0.288365
     40 H20         1.7650    5.8350   -5.6970 hn        1 MOL      0.288365
     41 N4         -1.8460    4.3550   -0.7010 n         1 MOL     -0.428868
     42 C13        -2.9820    4.6570   -1.5690 c3        1 MOL      0.073973
     43 C14        -4.3230    4.4350   -0.8280 c         1 MOL      0.470733
     44 O6         -5.3180    5.1120   -1.1470 o         1 MOL     -0.547148
     45 C15        -2.8280    3.8440   -2.8480 c3        1 MOL     -0.202850
     46 C16        -2.5840    2.3500   -2.5920 c         1 MOL      0.814807
     47 O7         -3.3870    1.6610   -1.9890 o         1 MOL     -0.784203
     48 O8         -1.5340    1.8030   -2.9780 o         1 MOL     -0.784203
     49 H21        -1.7270    3.4220   -0.3350 hn        1 MOL      0.287895
     50 H22        -2.9810    5.7260   -1.7750 h1        1 MOL      0.093490
     51 H23        -1.9260    4.2240   -3.3180 hc        1 MOL      0.045092
     52 H24        -3.5930    4.1450   -3.5690 hc        1 MOL      0.045092
     53 N5         -4.3560    3.5590    0.2290 n         1 MOL     -0.274473
     54 C17        -5.5560    3.3040    1.0780 c3        1 MOL     -0.038943
     55 C18        -6.4230    2.1900    0.6360 c         1 MOL      0.409329
     56 O9         -7.6280    2.1100    0.9930 o         1 MOL     -0.574369
     57 H25        -3.4990    3.0290    0.3430 hn        1 MOL      0.156937
     58 H26        -6.0160    4.2950    1.0820 h1        1 MOL      0.095682
     59 H27        -5.2500    3.1940    2.1220 h1        1 MOL      0.095682
     60 N6         -5.9760    1.2510   -0.2050 n         1 MOL     -0.020884
     61 C19        -6.8130    0.2150   -0.8590 c3        1 MOL     -0.110214
     62 C20        -7.0750   -1.0770   -0.0130 c         1 MOL      0.482794
     63 O10        -7.7840   -1.9870   -0.4850 o         1 MOL     -0.514301
     64 C21        -6.2120   -0.1750   -2.2100 c3        1 MOL     -0.310447
     65 C22        -4.9830   -1.0700   -2.0320 c         1 MOL      0.448417
     66 N7         -4.8550   -1.9680   -3.0130 n         1 MOL     -0.419396
     67 O11        -4.2730   -1.1770   -1.0160 o         1 MOL     -0.444476
     68 H28        -5.0120    1.2770   -0.4760 hn        1 MOL      0.093329
     69 H29        -7.8180    0.6040   -1.0360 h1        1 MOL      0.149975
     70 H30        -6.0170    0.7570   -2.7460 hc        1 MOL      0.135298
     71 H31        -6.9920   -0.7270   -2.7390 hc        1 MOL      0.135298
     72 H32        -5.4360   -1.8500   -3.8280 hn        1 MOL      0.255826
     73 H33        -4.0250   -2.5460   -2.9900 hn        1 MOL      0.255826
     74 N8         -6.6010   -1.1530    1.2660 n         1 MOL     -0.407100
     75 C23        -6.5490   -2.4050    2.1300 c3        1 MOL     -0.029484
     76 C24        -5.2440   -3.2120    2.3120 c         1 MOL      0.414551
     77 O12        -5.1920   -4.0590    3.1850 o         1 MOL     -0.539986
     78 H34        -6.0210   -0.3850    1.5700 hn        1 MOL      0.281955
     79 H35        -7.2880   -3.1550    1.8380 h1        1 MOL      0.102319
     80 H36        -6.8910   -2.0880    3.1100 h1        1 MOL      0.102319
     81 N9         -4.1900   -3.0400    1.4540 n         1 MOL     -0.089394
     82 C25        -3.0260   -3.8650    1.6250 c3        1 MOL      0.067407
     83 C26        -1.7350   -3.1020    1.1820 c         1 MOL      0.387336
     84 O13        -1.7770   -2.2170    0.3560 o         1 MOL     -0.484297
     85 C27        -3.1740   -5.2880    1.0410 c3        1 MOL     -0.126964
     86 C28        -3.3250   -5.3620   -0.4260 ca        1 MOL      0.000218
     87 C29        -2.1490   -5.4960   -1.1910 ca        1 MOL     -0.064326
     88 C30        -4.5390   -5.0670   -1.0370 ca        1 MOL     -0.064326
     89 C31        -2.2410   -5.4270   -2.6350 ca        1 MOL     -0.393606
     90 C32        -4.5820   -4.9560   -2.4110 ca        1 MOL     -0.393606
     91 C33        -3.5140   -5.2480   -3.2520 ca        1 MOL      0.451190
     92 O14        -3.6500   -5.2500   -4.5560 oh        1 MOL     -0.496519
     93 H37        -4.1830   -2.1810    0.9280 hn        1 MOL      0.099844
     94 H38        -2.9100   -4.0840    2.6830 h1        1 MOL      0.060475
     95 H39        -4.0590   -5.7120    1.5080 hc        1 MOL      0.057928
     96 H40        -2.2390   -5.7880    1.2470 hc        1 MOL      0.057928
     97 H41        -1.1860   -5.6490   -0.7290 ha        1 MOL      0.144420
     98 H42        -5.5140   -4.9360   -0.5840 ha        1 MOL      0.144420
     99 H43        -1.3790   -5.3570   -3.2870 ha        1 MOL      0.156594
    100 H44        -5.5260   -4.6510   -2.8460 ha        1 MOL      0.156594
    101 H45        -2.8260   -5.4870   -4.9840 ho        1 MOL      0.358711
    102 N10        -0.5280   -3.5050    1.6360 n         1 MOL     -0.298644
    103 C34         0.7930   -2.9020    1.3180 c3        1 MOL     -0.220183
    104 C35         1.8660   -3.8410    0.7420 c         1 MOL      0.592717
    105 O15         1.7640   -5.0900    0.8920 o         1 MOL     -0.573773
    106 C36         1.2380   -2.0940    2.4970 c3        1 MOL     -0.079575
    107 C37         1.6050   -2.9700    3.7380 c3        1 MOL     -0.192628
    108 C38         0.3580   -0.8310    2.9400 c3        1 MOL      0.041942
    109 C39         2.3040   -2.1680    4.8700 c3        1 MOL     -0.106503
    110 H46        -0.5880   -4.2640    2.3010 hn        1 MOL      0.267034
    111 H47         0.6370   -2.1620    0.5370 h1        1 MOL      0.160583
    112 H48         2.1550   -1.5640    2.2810 hc        1 MOL      0.069113
    113 H49         2.3140   -3.7260    3.4120 hc        1 MOL      0.076944
    114 H50         0.6840   -3.3200    4.2080 hc        1 MOL      0.076944
    115 H51         0.7300   -0.1480    3.6990 hc        1 MOL      0.031339
    116 H52         0.0610   -0.3740    1.9930 hc        1 MOL      0.031339
    117 H53        -0.5730   -1.2590    3.3190 hc        1 MOL      0.031339
    118 H54         2.6030   -2.8550    5.6580 hc        1 MOL      0.038238
    119 H55         3.1450   -1.6310    4.4350 hc        1 MOL      0.038238
    120 H56         1.5440   -1.4930    5.2640 hc        1 MOL      0.038238
    121 N11         2.8740   -3.2900    0.0860 n         1 MOL     -0.215544
    122 C40         4.0340   -3.9690   -0.4360 c3        1 MOL      0.008109
    123 C41         5.3150   -3.1710   -0.2230 c         1 MOL      0.433018
    124 O16         5.1740   -1.9920    0.1880 o         1 MOL     -0.469766
    125 C42         3.8050   -4.4010   -1.8840 c3        1 MOL      0.094313
    126 O17         3.4550   -3.2670   -2.6220 oh        1 MOL     -0.551520
    127 H57         2.8250   -2.2900   -0.0210 hn        1 MOL      0.196180
    128 H58         4.0710   -4.9610    0.0340 h1        1 MOL      0.036235
    129 H59         2.9550   -5.0840   -1.9450 h1        1 MOL      0.040521
    130 H60         4.7230   -4.8950   -2.1970 h1        1 MOL      0.040521
    131 H61         4.2840   -3.0210   -3.0420 ho        1 MOL      0.375492
    132 N12         6.4760   -3.7410   -0.4950 n         1 MOL     -0.372367
    133 C43         7.8070   -3.1750   -0.0830 c3        1 MOL     -0.071917
    134 C44         8.1840   -1.7000   -0.6370 c         1 MOL      0.512340
    135 O18         8.8700   -0.9070    0.0670 o         1 MOL     -0.531174
    136 C45         8.9060   -4.2080   -0.3790 c3        1 MOL     -0.373356
    137 H62         6.3840   -4.7070   -0.7860 hn        1 MOL      0.317156
    138 H63         7.7320   -3.1120    0.9970 h1        1 MOL      0.164411
    139 H64         8.5760   -5.1200    0.1130 hc        1 MOL      0.123640
    140 H65         8.9570   -4.5650   -1.4040 hc        1 MOL      0.123640
    141 H66         9.9310   -3.9400   -0.0810 hc        1 MOL      0.123640
    142 N13         7.6100   -1.1840   -1.7270 n         1 MOL     -0.330071
    143 C46         7.8880    0.1400   -2.1790 c3        1 MOL      0.109503
    144 C47         6.9440    1.1240   -1.3910 c         1 MOL      0.397676
    145 O19         7.3220    2.2580   -1.1250 o         1 MOL     -0.540059
    146 C48         7.6020    0.1600   -3.6330 c3        1 MOL     -0.242402
    147 H67         6.9400   -1.7300   -2.2480 hn        1 MOL      0.209316
    148 H68         8.9240    0.3640   -1.9470 h1        1 MOL      0.114328
    149 H69         6.5370   -0.0450   -3.7090 hc        1 MOL      0.065871
    150 H70         7.6720    1.1930   -3.9930 hc        1 MOL      0.065871
    151 H71         8.2960   -0.4620   -4.1910 hc        1 MOL      0.065871
    152 N14         5.7840    0.7780   -0.9370 n         1 MOL     -0.176965
    153 C49         5.0300    1.5320    0.0740 c3        1 MOL     -0.354197
    154 C50         5.6940    1.5160    1.4210 c         1 MOL      0.680160
    155 O20         5.6310    2.5530    2.0330 o         1 MOL     -0.553206
    156 C51         3.6290    1.0100    0.1650 c3        1 MOL      0.204962
    157 C52         2.8400    0.7670   -1.1170 c3        1 MOL     -0.553003
    158 C53         1.3390    0.3740   -0.8760 c         1 MOL      0.997918
    159 O21         0.6000    0.9840   -0.1080 o         1 MOL     -0.818013
    160 O22         0.7770   -0.5360   -1.4650 o         1 MOL     -0.818013
    161 H72         5.3950   -0.1420   -1.1100 hn        1 MOL      0.241236
    162 H73         4.9590    2.5420   -0.3180 h1        1 MOL      0.167427
    163 H74         3.1380    1.8020    0.7350 hc        1 MOL     -0.007559
    164 H75         3.6320    0.1730    0.8570 hc        1 MOL     -0.007559
    165 H76         3.3270    0.0140   -1.7350 hc        1 MOL      0.100817
    166 H77         2.9310    1.7600   -1.5350 hc        1 MOL      0.100817
    167 N15         6.3000    0.3920    1.8070 n         1 MOL     -0.200276
    168 C54         7.0960    0.4310    3.0540 c3        1 MOL     -0.373063
    169 H78         8.1070    0.7690    2.8280 h1        1 MOL      0.138719
    170 H79         6.6330    1.1210    3.7590 h1        1 MOL      0.138719
    171 H80         7.1350   -0.5650    3.4920 h1        1 MOL      0.138719
    172 H81         6.2190   -0.4730    1.2980 hn        1 MOL      0.206388
    173 Ca1        -1.7400   -0.0580   -0.9970 Ca        1 MOL      1.757089
    174 O23        -1.7710   -1.7770   -3.0800 oh        1 MOL     -0.874687
    175 H82        -1.1260   -2.4780   -3.1360 ho        1 MOL      0.423206
    176 H83        -2.0310   -1.6100   -3.9890 ho        1 MOL      0.423206
@<TRIPOS>BOND
     1    1    2 1   
     2    1    4 1   
     3    1    5 1   
     4    1    6 1   
     5    2    3 2   
     6    2    7 1   
     7    7    8 1   
     8    7   15 1   
     9    8    9 1   
    10    8   11 1   
    11    8   16 1   
    12    9   10 2   
    13    9   19 1   
    14   11   12 1   
    15   11   17 1   
    16   11   18 1   
    17   12   13 1   
    18   12   14 1   
    19   19   20 1   
    20   19   28 1   
    21   20   21 1   
    22   20   23 1   
    23   20   29 1   
    24   21   22 2   
    25   21   41 1   
    26   23   24 1   
    27   23   30 1   
    28   23   31 1   
    29   24   25 1   
    30   24   32 1   
    31   24   33 1   
    32   25   26 1   
    33   25   34 1   
    34   25   35 1   
    35   26   27 1   
    36   26   36 1   
    37   26   37 1   
    38   27   38 1   
    39   27   39 1   
    40   27   40 1   
    41   41   42 1   
    42   41   49 1   
    43   42   43 1   
    44   42   45 1   
    45   42   50 1   
    46   43   44 2   
    47   43   53 1   
    48   45   46 1   
    49   45   51 1   
    50   45   52 1   
    51   46   47 1   
    52   46   48 1   
    53   53   54 1   
    54   53   57 1   
    55   54   55 1   
    56   54   58 1   
    57   54   59 1   
    58   55   56 2   
    59   55   60 1   
    60   60   61 1   
    61   60   68 1   
    62   61   62 1   
    63   61   64 1   
    64   61   69 1   
    65   62   63 2   
    66   62   74 1   
    67   64   65 1   
    68   64   70 1   
    69   64   71 1   
    70   65   66 1   
    71   65   67 2   
    72   66   72 1   
    73   66   73 1   
    74   74   75 1   
    75   74   78 1   
    76   75   76 1   
    77   75   79 1   
    78   75   80 1   
    79   76   77 2   
    80   76   81 1   
    81   81   82 1   
    82   81   93 1   
    83   82   83 1   
    84   82   85 1   
    85   82   94 1   
    86   83   84 2   
    87   83  102 1   
    88   85   86 1   
    89   85   95 1   
    90   85   96 1   
    91   86   87 ar  
    92   86   88 ar  
    93   87   89 ar  
    94   87   97 1   
    95   88   90 ar  
    96   88   98 1   
    97   89   91 ar  
    98   89   99 1   
    99   90   91 ar  
   100   90  100 1   
   101   91   92 1   
   102   92  101 1   
   103  102  103 1   
   104  102  110 1   
   105  103  104 1   
   106  103  106 1   
   107  103  111 1   
   108  104  105 2   
   109  104  121 1   
   110  106  107 1   
   111  106  108 1   
   112  106  112 1   
   113  107  109 1   
   114  107  113 1   
   115  107  114 1   
   116  108  115 1   
   117  108  116 1   
   118  108  117 1   
   119  109  118 1   
   120  109  119 1   
   121  109  120 1   
   122  121  122 1   
   123  121  127 1   
   124  122  123 1   
   125  122  125 1   
   126  122  128 1   
   127  123  124 2   
   128  123  132 1   
   129  125  126 1   
   130  125  129 1   
   131  125  130 1   
   132  126  131 1   
   133  132  133 1   
   134  132  137 1   
   135  133  134 1   
   136  133  136 1   
   137  133  138 1   
   138  134  135 2   
   139  134  142 1   
   140  136  139 1   
   141  136  140 1   
   142  136  141 1   
   143  142  143 1   
   144  142  147 1   
   145  143  144 1   
   146  143  146 1   
   147  143  148 1   
   148  144  145 2   
   149  144  152 1   
   150  146  149 1   
   151  146  150 1   
   152  146  151 1   
   153  152  153 1   
   154  152  161 1   
   155  153  154 1   
   156  153  156 1   
   157  153  162 1   
   158  154  155 2   
   159  154  167 1   
   160  156  157 1   
   161  156  163 1   
   162  156  164 1   
   163  157  158 1   
   164  157  165 1   
   165  157  166 1   
   166  158  159 1   
   167  158  160 1   
   168  167  168 1   
   169  167  172 1   
   170  168  169 1   
   171  168  170 1   
   172  168  171 1   
   173  174  175 1   
   174  174  176 1   
@<TRIPOS>SUBSTRUCTURE
     1 MOL         1 TEMP              0 ****  ****    0 ROOT
