@<TRIPOS>MOLECULE
MOL
  189   185     1     0     0
SMALL
resp


@<TRIPOS>ATOM
      1 C1          0.4140    1.7450    5.6900 c3        1 MOL     -0.402110
      2 C2         -0.2080    1.7650    4.3020 c         1 MOL      0.618260
      3 O1          0.4910    2.0800    3.3390 o         1 MOL     -0.547707
      4 H1          0.6060    2.7670    6.0160 hc        1 MOL      0.112882
      5 H2         -0.2710    1.2640    6.3880 hc        1 MOL      0.112882
      6 H3          1.3520    1.1910    5.6600 hc        1 MOL      0.112882
      7 N1         -1.5080    1.4360    4.1470 n         1 MOL     -0.532528
      8 C3         -2.2880    1.3010    2.9770 c3        1 MOL      0.246695
      9 C4         -2.7050    2.6490    2.3770 c         1 MOL      0.430696
     10 O2         -3.9260    2.9710    2.3510 o         1 MOL     -0.465054
     11 C5         -3.4900    0.3640    3.1450 c3        1 MOL     -0.227647
     12 C6         -4.1970   -0.0140    1.7820 c         1 MOL      0.605288
     13 O3         -3.6160    0.0390    0.6420 o         1 MOL     -0.615570
     14 O4         -5.3550   -0.4660    1.8140 o         1 MOL     -0.615570
     15 H4         -1.9910    1.1770    5.0020 hn        1 MOL      0.291752
     16 H5         -1.7650    0.6700    2.2590 h1        1 MOL      0.008196
     17 H6         -4.2180    0.8200    3.8230 hc        1 MOL      0.059823
     18 H7         -3.2260   -0.5880    3.6020 hc        1 MOL      0.059823
     19 N2         -1.7330    3.3420    1.7460 n         1 MOL     -0.456777
     20 C7         -1.9210    4.7350    1.2380 c3        1 MOL     -0.005875
     21 C8         -3.0140    4.9230    0.2070 c         1 MOL      0.376441
     22 O5         -3.7250    5.9700    0.2720 o         1 MOL     -0.544745
     23 C9         -0.5270    5.2410    0.7100 c3        1 MOL     -0.213017
     24 C10        -0.3330    6.6670    0.1300 c3        1 MOL     -0.052491
     25 C11        -0.6680    7.7020    1.1620 c3        1 MOL     -0.031109
     26 C12         0.3800    7.6540    2.2660 c3        1 MOL      0.088535
     27 N3         -0.0610    8.4390    3.4340 n4        1 MOL     -0.370699
     28 H8         -0.8630    2.8390    1.6520 hn        1 MOL      0.296372
     29 H9         -2.3090    5.3340    2.0670 h1        1 MOL      0.110478
     30 H10        -0.0420    4.5770   -0.0040 hc        1 MOL      0.120607
     31 H11         0.2240    5.0830    1.4770 hc        1 MOL      0.120607
     32 H12        -0.9540    6.8700   -0.7450 hc        1 MOL      0.059418
     33 H13         0.7330    6.7340   -0.1180 hc        1 MOL      0.059418
     34 H14        -1.6270    7.5550    1.6440 hc        1 MOL      0.029294
     35 H15        -0.6460    8.6580    0.6460 hc        1 MOL      0.029294
     36 H16         1.2570    8.1570    1.8620 hx        1 MOL      0.057458
     37 H17         0.6450    6.6410    2.5580 hx        1 MOL      0.057458
     38 H18        -0.0380    9.4260    3.2220 hn        1 MOL      0.328688
     39 H19        -1.0500    8.2640    3.5050 hn        1 MOL      0.328688
     40 H20         0.3160    8.1320    4.3180 hn        1 MOL      0.328688
     41 N4         -3.1670    3.9750   -0.7230 n         1 MOL     -0.131920
     42 C13        -4.0720    4.1240   -1.8940 c3        1 MOL      0.059229
     43 C14        -5.3670    3.3490   -1.6550 c         1 MOL      0.376417
     44 O6         -6.3110    3.4400   -2.4280 o         1 MOL     -0.524374
     45 C15        -3.2780    3.7790   -3.1930 c3        1 MOL     -0.271696
     46 C16        -2.8210    2.3080   -3.2820 c         1 MOL      0.813217
     47 O7         -2.9060    1.5690   -2.2610 o         1 MOL     -0.691129
     48 O8         -2.2930    1.8950   -4.2740 o         1 MOL     -0.691129
     49 H21        -2.5610    3.1820   -0.6110 hn        1 MOL      0.162444
     50 H22        -4.4680    5.1390   -1.9240 h1        1 MOL      0.071236
     51 H23        -2.3450    4.3380   -3.2390 hc        1 MOL      0.060049
     52 H24        -3.9210    4.0000   -4.0530 hc        1 MOL      0.060049
     53 N5         -5.4060    2.5780   -0.5920 n         1 MOL      0.023827
     54 C17        -6.6290    1.9840   -0.0120 c3        1 MOL     -0.222812
     55 C18        -7.1800    0.8620   -0.9240 c         1 MOL      0.585652
     56 O9         -8.3210    0.9520   -1.2850 o         1 MOL     -0.593554
     57 H25        -4.5600    2.5740   -0.0340 hn        1 MOL      0.020876
     58 H26        -7.3080    2.8430    0.0410 h1        1 MOL      0.108910
     59 H27        -6.5140    1.6210    1.0070 h1        1 MOL      0.108910
     60 N6         -6.4700   -0.1990   -1.2220 n         1 MOL     -0.169045
     61 C19        -6.8320   -1.3580   -2.0510 c3        1 MOL      0.011684
     62 C20        -6.8130   -2.6920   -1.2340 c         1 MOL      0.334713
     63 O10        -6.9320   -3.7710   -1.8300 o         1 MOL     -0.481904
     64 C21        -5.8200   -1.5070   -3.1910 c3        1 MOL     -0.177448
     65 C22        -4.3410   -1.7520   -2.8330 c         1 MOL      0.654212
     66 O11        -3.5240   -1.6760   -3.7430 o         1 MOL     -0.650452
     67 O12        -3.9980   -2.0030   -1.6590 o         1 MOL     -0.650452
     68 H28        -5.4980   -0.2410   -0.9460 hn        1 MOL     -0.025409
     69 H29        -7.8360   -1.1860   -2.4280 h1        1 MOL      0.112862
     70 H30        -5.9220   -0.5710   -3.7410 hc        1 MOL      0.070158
     71 H31        -6.0800   -2.2730   -3.9260 hc        1 MOL      0.070158
     72 N7         -6.6510   -2.6520    0.1710 n         1 MOL     -0.254249
     73 C23        -6.7180   -3.8520    1.0670 c3        1 MOL     -0.077080
     74 C24        -5.4620   -4.6350    0.9880 c         1 MOL      0.597378
     75 O13        -5.5090   -5.7980    1.3270 o         1 MOL     -0.566577
     76 H32        -6.5350   -1.7240    0.5390 hn        1 MOL      0.207324
     77 H33        -7.5520   -4.4600    0.7230 h1        1 MOL      0.080703
     78 H34        -6.9800   -3.6140    2.0950 h1        1 MOL      0.080703
     79 N8         -4.3020   -4.0250    0.7100 n         1 MOL     -0.401634
     80 C25        -2.9820   -4.6200    0.5990 c3        1 MOL     -0.264673
     81 C26        -1.8740   -3.6850    0.8490 c         1 MOL      0.814746
     82 O14        -1.8410   -2.5480    0.3280 o         1 MOL     -0.761820
     83 C27        -2.6550   -5.2190   -0.7970 c3        1 MOL      0.430815
     84 C28        -3.1160   -6.6530   -0.9780 c3        1 MOL     -0.579744
     85 O15        -3.3170   -4.5950   -1.8690 oh        1 MOL     -0.656591
     86 H35        -4.2780   -3.0340    0.5580 hn        1 MOL      0.319244
     87 H36        -2.9100   -5.4610    1.2900 h1        1 MOL      0.133797
     88 H37        -1.6080   -5.1650   -1.0940 h1        1 MOL      0.019471
     89 H38        -3.7330   -3.8050   -1.5330 ho        1 MOL      0.510575
     90 H39        -4.2030   -6.7710   -0.9920 hc        1 MOL      0.152412
     91 H40        -2.8140   -6.9080   -1.9920 hc        1 MOL      0.152412
     92 H41        -2.6400   -7.3760   -0.3180 hc        1 MOL      0.152412
     93 N9         -0.7820   -4.1110    1.4650 n         1 MOL     -0.717879
     94 C29         0.4440   -3.2310    1.6850 c3        1 MOL      0.064460
     95 C30         1.5410   -3.7590    0.7400 c         1 MOL      0.513905
     96 O16         1.7970   -4.9700    0.7610 o         1 MOL     -0.550804
     97 C31         0.8570   -3.0620    3.1610 c3        1 MOL      0.220075
     98 C32        -0.3570   -2.7080    4.1360 c3        1 MOL      0.027025
     99 C33         1.9830   -2.0480    3.3110 c3        1 MOL     -0.524537
    100 C34        -0.1140   -3.1170    5.5800 c3        1 MOL     -0.376310
    101 H42        -0.8570   -5.0060    1.9210 hn        1 MOL      0.324168
    102 H43         0.2190   -2.2120    1.3780 h1        1 MOL      0.116930
    103 H44         1.3450   -3.9640    3.5180 hc        1 MOL      0.010679
    104 H45        -1.2850   -3.1800    3.8210 hc        1 MOL      0.039877
    105 H46        -0.7440   -1.6930    4.0130 hc        1 MOL      0.039877
    106 H47         2.2610   -1.9920    4.3660 hc        1 MOL      0.112139
    107 H48         2.8140   -2.3660    2.6850 hc        1 MOL      0.112139
    108 H49         1.6250   -1.0670    2.9900 hc        1 MOL      0.112139
    109 H50         0.0450   -4.1840    5.7220 hc        1 MOL      0.093412
    110 H51         0.8520   -2.7720    5.9440 hc        1 MOL      0.093412
    111 H52        -0.9480   -2.8210    6.2150 hc        1 MOL      0.093412
    112 N10         2.3480   -2.8480    0.1710 n         1 MOL     -0.196029
    113 C35         3.6400   -3.1210   -0.5680 c3        1 MOL      0.021307
    114 C36         4.9340   -2.8460    0.2330 c         1 MOL      0.297016
    115 O17         4.8980   -1.9750    1.0750 o         1 MOL     -0.258695
    116 C37         3.6660   -2.3190   -1.9110 c3        1 MOL      0.046553
    117 C38         2.6790   -2.6300   -2.9790 c3        1 MOL     -0.306351
    118 O18         3.4950   -0.9490   -1.5640 oh        1 MOL     -0.545852
    119 H53         1.9380   -1.9210    0.1590 hn        1 MOL      0.248226
    120 H54         3.6450   -4.2030   -0.7280 h1        1 MOL      0.062838
    121 H55         4.6210   -2.4720   -2.4060 h1        1 MOL      0.098480
    122 H56         2.5590   -0.7330   -1.4530 ho        1 MOL      0.409247
    123 H57         2.9190   -2.0370   -3.8560 hc        1 MOL      0.103512
    124 H58         2.8600   -3.6230   -3.4020 hc        1 MOL      0.103512
    125 H59         1.6580   -2.5850   -2.6010 hc        1 MOL      0.103512
    126 N11         6.0770   -3.3410   -0.2330 n         1 MOL     -0.245953
    127 C39         7.4030   -2.8830    0.0860 c3        1 MOL     -0.112139
    128 C40         7.7650   -1.4390    0.0180 c         1 MOL      0.223125
    129 O19         8.4850   -0.8910    0.8510 o         1 MOL     -0.451897
    130 C41         8.5840   -3.6220   -0.6180 c3        1 MOL      0.398273
    131 C42         9.1570   -4.7020    0.1330 c3        1 MOL     -0.284760
    132 O20         8.0640   -4.2540   -1.7550 oh        1 MOL     -0.586261
    133 H60         6.1010   -3.9750   -1.0220 hn        1 MOL      0.218633
    134 H61         7.5370   -3.1450    1.1370 h1        1 MOL      0.125004
    135 H62         9.3700   -2.9880   -1.0340 h1        1 MOL      0.033304
    136 H63         7.7060   -3.6060   -2.3640 ho        1 MOL      0.347892
    137 H64         8.4410   -5.2930    0.6830 hc        1 MOL      0.085009
    138 H65         9.7280   -5.3060   -0.5800 hc        1 MOL      0.085009
    139 H66         9.8150   -4.2500    0.8800 hc        1 MOL      0.085009
    140 N12         7.1890   -0.6840   -0.9190 n         1 MOL     -0.167060
    141 C43         7.2360    0.7810   -1.0530 c3        1 MOL     -0.104967
    142 C44         6.3290    1.4710   -0.0250 c         1 MOL      0.419767
    143 O21         6.9010    2.3340    0.6100 o         1 MOL     -0.509036
    144 C45         6.8210    1.1590   -2.4730 c3        1 MOL     -0.040032
    145 C46         7.0360    2.6210   -2.8030 c3        1 MOL     -0.079202
    146 C47         6.7690    2.9210   -4.2680 c3        1 MOL     -0.003759
    147 C48         7.0660    4.4400   -4.5260 c3        1 MOL      0.044540
    148 N13         6.9190    4.6980   -6.0000 n4        1 MOL     -0.237864
    149 H67         6.7710   -1.2420   -1.6530 hn        1 MOL      0.144628
    150 H68         8.2650    1.0710   -0.8200 h1        1 MOL      0.130869
    151 H69         5.7970    0.8540   -2.6870 hc        1 MOL      0.032825
    152 H70         7.4680    0.6360   -3.1740 hc        1 MOL      0.032825
    153 H71         8.0810    2.8120   -2.5470 hc        1 MOL      0.050065
    154 H72         6.2860    3.1530   -2.2190 hc        1 MOL      0.050065
    155 H73         5.7060    2.7610   -4.4700 hc        1 MOL      0.033078
    156 H74         7.3990    2.2910   -4.8900 hc        1 MOL      0.033078
    157 H75         8.0860    4.7120   -4.2630 hx        1 MOL      0.080837
    158 H76         6.4030    5.0450   -3.9110 hx        1 MOL      0.080837
    159 H77         7.7170    4.3250   -6.4930 hn        1 MOL      0.283522
    160 H78         6.1480    4.2490   -6.4570 hn        1 MOL      0.283522
    161 H79         6.9300    5.6800   -6.2510 hn        1 MOL      0.283522
    162 N14         5.0410    1.1080    0.0390 n         1 MOL     -0.067249
    163 C49         4.2090    1.6430    1.0890 c3        1 MOL     -0.132763
    164 C50         4.6810    1.4490    2.5300 c         1 MOL      0.447954
    165 O22         4.7710    2.3610    3.3260 o         1 MOL     -0.536014
    166 C51         2.8450    1.0070    0.8990 c3        1 MOL      0.079288
    167 C52         1.9750    1.5990   -0.1960 c3        1 MOL     -0.087171
    168 C53         0.6800    0.8360   -0.3820 c         1 MOL      0.835300
    169 O23         0.6840   -0.3870   -0.5880 o         1 MOL     -0.815470
    170 O24        -0.3960    1.4800   -0.3330 o         1 MOL     -0.815470
    171 H80         4.5930    0.5600   -0.6910 hn        1 MOL      0.169044
    172 H81         4.1890    2.7320    0.9880 h1        1 MOL      0.038073
    173 H82         2.3530    1.0260    1.8680 hc        1 MOL     -0.008461
    174 H83         3.0340   -0.0620    0.7840 hc        1 MOL     -0.008461
    175 H84         2.5210    1.5280   -1.1350 hc        1 MOL     -0.013641
    176 H85         1.7850    2.6770   -0.1320 hc        1 MOL     -0.013641
    177 N15         5.1530    0.2110    2.7430 n         1 MOL     -0.025255
    178 C54         5.8670   -0.1890    3.9990 c3        1 MOL     -0.228961
    179 H86         5.7100    0.5720    4.7640 h1        1 MOL      0.086975
    180 H87         5.4760   -1.1440    4.3520 h1        1 MOL      0.086975
    181 H88         6.9340   -0.2850    3.7980 h1        1 MOL      0.086975
    182 H89         5.0090   -0.5610    2.1120 hn        1 MOL      0.073040
    183 Ca1        -1.9300   -0.4610   -1.1440 Ca        1 MOL      1.743336
    184 O25        -1.3050   -2.6990   -2.7960 oh        1 MOL     -0.853713
    185 H90        -1.7840   -3.4280   -2.3970 ho        1 MOL      0.394173
    186 H91        -1.9640   -2.2300   -3.3090 ho        1 MOL      0.394173
    187 O26        -0.4710    0.0760   -3.4040 oh        1 MOL     -0.853713
    188 H92        -1.0300    0.6840   -3.8850 ho        1 MOL      0.394173
    189 H93         0.3300    0.0260   -3.9230 ho        1 MOL      0.394173
@<TRIPOS>BOND
     1    1    2 1   
     2    1    4 1   
     3    1    5 1   
     4    1    6 1   
     5    2    3 2   
     6    2    7 1   
     7    7    8 1   
     8    7   15 1   
     9    8    9 1   
    10    8   11 1   
    11    8   16 1   
    12    9   10 2   
    13    9   19 1   
    14   11   12 1   
    15   11   17 1   
    16   11   18 1   
    17   12   13 1   
    18   12   14 1   
    19   19   20 1   
    20   19   28 1   
    21   20   21 1   
    22   20   23 1   
    23   20   29 1   
    24   21   22 2   
    25   21   41 1   
    26   23   24 1   
    27   23   30 1   
    28   23   31 1   
    29   24   25 1   
    30   24   32 1   
    31   24   33 1   
    32   25   26 1   
    33   25   34 1   
    34   25   35 1   
    35   26   27 1   
    36   26   36 1   
    37   26   37 1   
    38   27   38 1   
    39   27   39 1   
    40   27   40 1   
    41   41   42 1   
    42   41   49 1   
    43   42   43 1   
    44   42   45 1   
    45   42   50 1   
    46   43   44 2   
    47   43   53 1   
    48   45   46 1   
    49   45   51 1   
    50   45   52 1   
    51   46   47 1   
    52   46   48 1   
    53   53   54 1   
    54   53   57 1   
    55   54   55 1   
    56   54   58 1   
    57   54   59 1   
    58   55   56 2   
    59   55   60 1   
    60   60   61 1   
    61   60   68 1   
    62   61   62 1   
    63   61   64 1   
    64   61   69 1   
    65   62   63 2   
    66   62   72 1   
    67   64   65 1   
    68   64   70 1   
    69   64   71 1   
    70   65   66 1   
    71   65   67 1   
    72   72   73 1   
    73   72   76 1   
    74   73   74 1   
    75   73   77 1   
    76   73   78 1   
    77   74   75 2   
    78   74   79 1   
    79   79   80 1   
    80   79   86 1   
    81   80   81 1   
    82   80   83 1   
    83   80   87 1   
    84   81   82 2   
    85   81   93 1   
    86   83   84 1   
    87   83   85 1   
    88   83   88 1   
    89   84   90 1   
    90   84   91 1   
    91   84   92 1   
    92   85   89 1   
    93   93   94 1   
    94   93  101 1   
    95   94   95 1   
    96   94   97 1   
    97   94  102 1   
    98   95   96 2   
    99   95  112 1   
   100   97   98 1   
   101   97   99 1   
   102   97  103 1   
   103   98  100 1   
   104   98  104 1   
   105   98  105 1   
   106   99  106 1   
   107   99  107 1   
   108   99  108 1   
   109  100  109 1   
   110  100  110 1   
   111  100  111 1   
   112  112  113 1   
   113  112  119 1   
   114  113  114 1   
   115  113  116 1   
   116  113  120 1   
   117  114  115 2   
   118  114  126 1   
   119  116  117 1   
   120  116  118 1   
   121  116  121 1   
   122  117  123 1   
   123  117  124 1   
   124  117  125 1   
   125  118  122 1   
   126  126  127 1   
   127  126  133 1   
   128  127  128 1   
   129  127  130 1   
   130  127  134 1   
   131  128  129 2   
   132  128  140 1   
   133  130  131 1   
   134  130  132 1   
   135  130  135 1   
   136  131  137 1   
   137  131  138 1   
   138  131  139 1   
   139  132  136 1   
   140  140  141 1   
   141  140  149 1   
   142  141  142 1   
   143  141  144 1   
   144  141  150 1   
   145  142  143 2   
   146  142  162 1   
   147  144  145 1   
   148  144  151 1   
   149  144  152 1   
   150  145  146 1   
   151  145  153 1   
   152  145  154 1   
   153  146  147 1   
   154  146  155 1   
   155  146  156 1   
   156  147  148 1   
   157  147  157 1   
   158  147  158 1   
   159  148  159 1   
   160  148  160 1   
   161  148  161 1   
   162  162  163 1   
   163  162  171 1   
   164  163  164 1   
   165  163  166 1   
   166  163  172 1   
   167  164  165 2   
   168  164  177 1   
   169  166  167 1   
   170  166  173 1   
   171  166  174 1   
   172  167  168 1   
   173  167  175 1   
   174  167  176 1   
   175  168  169 1   
   176  168  170 1   
   177  177  178 1   
   178  177  182 1   
   179  178  179 1   
   180  178  180 1   
   181  178  181 1   
   182  184  185 1   
   183  184  186 1   
   184  187  188 1   
   185  187  189 1   
@<TRIPOS>SUBSTRUCTURE
     1 MOL         1 TEMP              0 ****  ****    0 ROOT
