@<TRIPOS>MOLECULE
MOL
  175   173     1     0     0
SMALL
resp


@<TRIPOS>ATOM
      1 C1          0.6760    2.9560    5.6800 c3        1 MOL     -0.360797
      2 C2          0.0350    3.4150    4.3150 c         1 MOL      0.672323
      3 O1          0.7400    3.8530    3.3920 o         1 MOL     -0.522641
      4 H1          0.6400    3.7800    6.3940 hc        1 MOL      0.088764
      5 H2          0.1190    2.1080    6.0770 hc        1 MOL      0.088764
      6 H3          1.7140    2.6650    5.5150 hc        1 MOL      0.088764
      7 N1         -1.2850    3.2880    4.2010 n         1 MOL     -0.647390
      8 C3         -1.9940    3.2100    2.9190 c3        1 MOL      0.286589
      9 C4         -1.9870    4.4840    1.9800 c         1 MOL      0.463662
     10 O2         -2.0520    5.5600    2.4580 o         1 MOL     -0.551704
     11 C5         -3.4290    2.7150    3.2210 c3        1 MOL     -0.373459
     12 C6         -4.0340    1.9260    2.1160 c         1 MOL      0.748815
     13 O3         -3.5590    1.9490    0.9310 o         1 MOL     -0.674223
     14 O4         -4.9880    1.1920    2.3870 o         1 MOL     -0.674223
     15 H4         -1.7180    3.0150    5.0700 hn        1 MOL      0.324137
     16 H5         -1.5390    2.4310    2.3000 h1        1 MOL      0.082424
     17 H6         -4.0270    3.6250    3.3210 hc        1 MOL      0.084344
     18 H7         -3.4870    2.1610    4.1590 hc        1 MOL      0.084344
     19 N2         -1.8250    4.3410    0.6700 n         1 MOL     -0.362787
     20 C7         -1.9210    5.4920   -0.2990 c3        1 MOL      0.340698
     21 C8         -3.0310    5.3220   -1.3510 c         1 MOL      0.489820
     22 O5         -3.0720    6.0980   -2.3230 o         1 MOL     -0.562505
     23 C9         -0.5400    5.8470   -0.8980 c3        1 MOL     -0.319343
     24 H8         -1.6510    3.4280    0.2890 hn        1 MOL      0.258857
     25 H9         -2.3330    6.3050    0.3030 h1        1 MOL     -0.012495
     26 H10        -0.1410    5.0160   -1.4730 hc        1 MOL      0.075506
     27 H11        -0.6440    6.7330   -1.5220 hc        1 MOL      0.075506
     28 H12         0.1100    6.0600   -0.0510 hc        1 MOL      0.075506
     29 N3         -3.9350    4.3360   -1.2130 n         1 MOL     -0.486059
     30 C10        -4.8440    3.9380   -2.3220 c3        1 MOL      0.160594
     31 C11        -6.0890    3.2040   -1.8620 c         1 MOL      0.400055
     32 O6         -7.1740    3.5040   -2.3990 o         1 MOL     -0.569668
     33 C12        -4.0830    3.1370   -3.4240 c3        1 MOL     -0.144602
     34 C13        -3.2580    1.9180   -2.9490 c         1 MOL      0.738863
     35 O7         -2.2460    1.6690   -3.6310 o         1 MOL     -0.711641
     36 O8         -3.5820    1.2290   -2.0010 o         1 MOL     -0.711641
     37 H13        -3.8320    3.7540   -0.3960 hn        1 MOL      0.171536
     38 H14        -5.1200    4.8740   -2.8080 h1        1 MOL      0.048537
     39 H15        -3.4070    3.9010   -3.8190 hc        1 MOL      0.031099
     40 H16        -4.7970    2.9350   -4.2180 hc        1 MOL      0.031099
     41 N4         -5.9950    2.3780   -0.8530 n         1 MOL     -0.212441
     42 C14        -7.1120    1.6220   -0.3990 c3        1 MOL     -0.053263
     43 C15        -7.3500    0.2560   -1.0280 c         1 MOL      0.521085
     44 O9         -8.5110   -0.0730   -1.1340 o         1 MOL     -0.609970
     45 H17        -5.1620    2.2450   -0.2970 hn        1 MOL      0.213247
     46 H18        -8.0860    2.1030   -0.5290 h1        1 MOL      0.060183
     47 H19        -7.0420    1.4500    0.6680 h1        1 MOL      0.060183
     48 N5         -6.3590   -0.5200   -1.4390 n         1 MOL     -0.093386
     49 C16        -6.4250   -1.7530   -2.1350 c3        1 MOL     -0.168188
     50 C17        -6.4250   -3.0390   -1.2010 c         1 MOL      0.466653
     51 O10        -6.2820   -4.1600   -1.6630 o         1 MOL     -0.523551
     52 C18        -5.2420   -1.8890   -3.1840 c3        1 MOL     -0.086455
     53 C19        -3.8120   -2.0080   -2.6010 c         1 MOL      0.557105
     54 N6         -2.8380   -2.1880   -3.4590 n         1 MOL     -0.548287
     55 O11        -3.5020   -1.8670   -1.4510 o         1 MOL     -0.633613
     56 H20        -5.4560   -0.0730   -1.4260 hn        1 MOL      0.116578
     57 H21        -7.3140   -1.7930   -2.7690 h1        1 MOL      0.122997
     58 H22        -5.1940   -0.9900   -3.7990 hc        1 MOL      0.049487
     59 H23        -5.3640   -2.7470   -3.8320 hc        1 MOL      0.049487
     60 H24        -2.9870   -2.3890   -4.4340 hn        1 MOL      0.299393
     61 H25        -1.8760   -1.9870   -3.2290 hn        1 MOL      0.299393
     62 N7         -6.4050   -2.7970    0.0790 n         1 MOL     -0.269934
     63 C20        -6.4230   -3.8250    1.0670 c3        1 MOL     -0.352233
     64 C21        -5.1060   -4.5310    1.2740 c         1 MOL      0.584734
     65 O12        -5.0730   -5.4870    2.0350 o         1 MOL     -0.588640
     66 H26        -6.1770   -1.8640    0.3770 hn        1 MOL      0.263259
     67 H27        -7.1630   -4.5740    0.7760 h1        1 MOL      0.156546
     68 H28        -6.7360   -3.2970    1.9620 h1        1 MOL      0.156546
     69 N8         -3.9770   -4.0810    0.7210 n         1 MOL     -0.300377
     70 C22        -2.6270   -4.6300    0.9170 c3        1 MOL     -0.086785
     71 C23        -1.6190   -3.5950    1.2870 c         1 MOL      0.458164
     72 O13        -1.6580   -2.4870    0.7410 o         1 MOL     -0.575751
     73 C24        -2.2010   -5.4920   -0.3240 c3        1 MOL      0.555138
     74 C25        -2.9690   -6.8070   -0.3430 c3        1 MOL     -0.438714
     75 O14        -2.3570   -4.7960   -1.5810 oh        1 MOL     -0.637289
     76 H29        -4.0380   -3.3450    0.0310 hn        1 MOL      0.320356
     77 H30        -2.6400   -5.2940    1.7790 h1        1 MOL      0.058394
     78 H31        -1.1590   -5.7620   -0.1510 h1        1 MOL     -0.063327
     79 H32        -2.2870   -3.8540   -1.4310 ho        1 MOL      0.371671
     80 H33        -2.6760   -7.3420   -1.2520 hc        1 MOL      0.108490
     81 H34        -2.8040   -7.5220    0.4670 hc        1 MOL      0.108490
     82 H35        -4.0330   -6.5940   -0.4450 hc        1 MOL      0.108490
     83 N9         -0.5330   -3.8860    1.9890 n         1 MOL     -0.337999
     84 C26         0.7260   -3.0150    1.9320 c3        1 MOL     -0.363033
     85 C27         1.5540   -3.1050    0.5870 c         1 MOL      0.778645
     86 O15         1.9580   -4.1720    0.2310 o         1 MOL     -0.616139
     87 C28         1.6220   -3.2960    3.1750 c3        1 MOL      0.475235
     88 C29         0.7950   -3.2060    4.4980 c3        1 MOL      0.082715
     89 C30         2.7630   -2.2720    3.2630 c3        1 MOL     -0.379890
     90 C31         1.5770   -4.1040    5.5180 c3        1 MOL     -0.217645
     91 H36        -0.4110   -4.8650    2.2340 hn        1 MOL      0.256728
     92 H37         0.3940   -2.0010    2.1520 h1        1 MOL      0.132894
     93 H38         2.1750   -4.2280    3.0610 hc        1 MOL     -0.091855
     94 H39        -0.1920   -3.6360    4.3480 hc        1 MOL     -0.036429
     95 H40         0.7480   -2.1620    4.7880 hc        1 MOL     -0.036429
     96 H41         3.3640   -2.2740    4.1790 hc        1 MOL      0.073608
     97 H42         3.4370   -2.3280    2.4100 hc        1 MOL      0.073608
     98 H43         2.2420   -1.3240    3.1320 hc        1 MOL      0.073608
     99 H44         1.3080   -5.1110    5.2090 hc        1 MOL      0.040169
    100 H45         2.6450   -3.8900    5.4240 hc        1 MOL      0.040169
    101 H46         1.3210   -3.8710    6.5480 hc        1 MOL      0.040169
    102 N10         1.8050   -1.9680   -0.0670 n         1 MOL     -0.373602
    103 C32         2.5890   -1.8180   -1.2380 c3        1 MOL     -0.005354
    104 C33         3.9670   -1.4080   -0.7510 c         1 MOL      0.423458
    105 O16         4.1910   -1.0190    0.3840 o         1 MOL     -0.310035
    106 C34         1.9120   -0.7860   -2.2060 c3        1 MOL     -0.287891
    107 C35         0.4650   -1.2340   -2.6100 c         1 MOL      0.740737
    108 O17        -0.4430   -0.8210   -1.8180 o         1 MOL     -0.665429
    109 O18         0.2410   -1.9090   -3.6370 o         1 MOL     -0.665429
    110 H47         1.4400   -1.1430    0.3930 hn        1 MOL      0.223301
    111 H48         2.5700   -2.7250   -1.8390 h1        1 MOL      0.096589
    112 H49         2.4540   -0.6240   -3.1340 hc        1 MOL      0.094544
    113 H50         1.8150    0.1120   -1.5860 hc        1 MOL      0.094544
    114 N11         4.9620   -1.6230   -1.6210 n         1 MOL     -0.619817
    115 C36         6.3870   -1.4140   -1.3160 c3        1 MOL      0.389629
    116 C37         6.7070    0.0920   -1.1080 c         1 MOL      0.367429
    117 O19         7.5080    0.4200   -0.1990 o         1 MOL     -0.523962
    118 C38         7.2320   -2.1090   -2.3480 c3        1 MOL     -0.204777
    119 C39         8.7320   -1.7810   -2.1650 ca        1 MOL      0.061459
    120 C40         9.5310   -2.5390   -1.3510 ca        1 MOL     -0.199372
    121 C41         9.4040   -0.6280   -2.8110 ca        1 MOL     -0.199372
    122 C42        10.8890   -2.2870   -1.1540 ca        1 MOL     -0.022187
    123 C43        10.7670   -0.5180   -2.7400 ca        1 MOL     -0.022187
    124 C44        11.5790   -1.3810   -1.9300 ca        1 MOL     -0.183719
    125 H51         4.7140   -2.0100   -2.5240 hn        1 MOL      0.302198
    126 H52         6.6450   -1.7920   -0.3200 h1        1 MOL      0.010297
    127 H53         6.8910   -1.8180   -3.3460 hc        1 MOL      0.073363
    128 H54         6.9980   -3.1650   -2.2570 hc        1 MOL      0.073363
    129 H55         9.2120   -3.4100   -0.7970 ha        1 MOL      0.122427
    130 H56         8.8480    0.0760   -3.4220 ha        1 MOL      0.122427
    131 H57        11.3820   -3.0100   -0.5280 ha        1 MOL      0.080135
    132 H58        11.3220    0.2290   -3.2920 ha        1 MOL      0.080135
    133 H59        12.6520   -1.3500   -2.0420 ha        1 MOL      0.115943
    134 N12         6.0510    1.0370   -1.7840 n         1 MOL      0.000583
    135 C45         6.1790    2.4750   -1.4620 c3        1 MOL      0.004727
    136 C46         5.5290    2.9200   -0.1110 c         1 MOL      0.237571
    137 O20         5.8870    4.0000    0.3830 o         1 MOL     -0.494937
    138 C47         5.3740    3.1250   -2.6030 c3        1 MOL     -0.042570
    139 C48         5.5200    2.2320   -3.7850 c3        1 MOL     -0.054711
    140 C49         5.4290    0.8830   -3.0910 c3        1 MOL     -0.090994
    141 H60         7.2370    2.7220   -1.4710 h1        1 MOL      0.065960
    142 H61         4.3630    3.2030   -2.2120 hc        1 MOL      0.039975
    143 H62         5.7760    4.0910   -2.9220 hc        1 MOL      0.039975
    144 H63         4.6920    2.2430   -4.4980 hc        1 MOL      0.043958
    145 H64         6.4680    2.2880   -4.3130 hc        1 MOL      0.043958
    146 H65         4.3730    0.6750   -2.9250 h1        1 MOL      0.041184
    147 H66         6.0230    0.2200   -3.7190 h1        1 MOL      0.041184
    148 N13         4.6960    2.1010    0.4720 n         1 MOL      0.052203
    149 C50         4.1390    2.1520    1.8120 c3        1 MOL     -0.242118
    150 C51         5.1330    1.5410    2.7930 c         1 MOL      0.563496
    151 O21         5.3270    2.1800    3.8420 o         1 MOL     -0.556414
    152 C52         2.7390    1.5210    1.7890 c3        1 MOL     -0.034155
    153 C53         1.7930    2.1450    0.6880 c3        1 MOL      0.097696
    154 C54         0.4690    1.4690    0.6040 c         1 MOL      0.404220
    155 O22        -0.4630    1.9560   -0.0090 o         1 MOL     -0.654797
    156 O23         0.2690    0.3640    1.2370 o         1 MOL     -0.654797
    157 H67         4.4260    1.2170    0.0660 hn        1 MOL      0.093319
    158 H68         4.0370    3.1950    2.1050 h1        1 MOL      0.123576
    159 H69         2.1260    1.6160    2.6840 hc        1 MOL      0.027256
    160 H70         2.9140    0.4540    1.6590 hc        1 MOL      0.027256
    161 H71         2.2360    2.1010   -0.3020 hc        1 MOL      0.027311
    162 H72         1.6480    3.2070    0.8370 hc        1 MOL      0.027311
    163 N14         5.6970    0.3430    2.5180 n         1 MOL     -0.207472
    164 C55         6.6150   -0.3960    3.4340 c3        1 MOL     -0.266128
    165 H73         6.3140   -0.2220    4.4670 h1        1 MOL      0.104173
    166 H74         6.5650   -1.4630    3.2160 h1        1 MOL      0.104173
    167 H75         7.6370   -0.0430    3.2900 h1        1 MOL      0.104173
    168 H76         5.5750   -0.0760    1.6100 hn        1 MOL      0.157363
    169 Ca1        -2.1660    0.0480   -0.1020 Ca        1 MOL      1.676602
    170 O24        -4.3780   -1.1350    1.0910 oh        1 MOL     -0.793881
    171 H77        -3.6970   -1.5050    1.6510 ho        1 MOL      0.377847
    172 H78        -4.8510   -0.5150    1.6590 ho        1 MOL      0.377847
    173 O25        -1.9450   -0.1800    2.5640 oh        1 MOL     -0.793881
    174 H79        -2.0950    0.1160    3.4640 ho        1 MOL      0.377847
    175 H80        -1.0130   -0.3890    2.5280 ho        1 MOL      0.377847
@<TRIPOS>BOND
     1    1    2 1   
     2    1    4 1   
     3    1    5 1   
     4    1    6 1   
     5    2    3 2   
     6    2    7 1   
     7    7    8 1   
     8    7   15 1   
     9    8    9 1   
    10    8   11 1   
    11    8   16 1   
    12    9   10 2   
    13    9   19 1   
    14   11   12 1   
    15   11   17 1   
    16   11   18 1   
    17   12   13 1   
    18   12   14 1   
    19   19   20 1   
    20   19   24 1   
    21   20   21 1   
    22   20   23 1   
    23   20   25 1   
    24   21   22 2   
    25   21   29 1   
    26   23   26 1   
    27   23   27 1   
    28   23   28 1   
    29   29   30 1   
    30   29   37 1   
    31   30   31 1   
    32   30   33 1   
    33   30   38 1   
    34   31   32 2   
    35   31   41 1   
    36   33   34 1   
    37   33   39 1   
    38   33   40 1   
    39   34   35 1   
    40   34   36 1   
    41   41   42 1   
    42   41   45 1   
    43   42   43 1   
    44   42   46 1   
    45   42   47 1   
    46   43   44 2   
    47   43   48 1   
    48   48   49 1   
    49   48   56 1   
    50   49   50 1   
    51   49   52 1   
    52   49   57 1   
    53   50   51 2   
    54   50   62 1   
    55   52   53 1   
    56   52   58 1   
    57   52   59 1   
    58   53   54 1   
    59   53   55 2   
    60   54   60 1   
    61   54   61 1   
    62   62   63 1   
    63   62   66 1   
    64   63   64 1   
    65   63   67 1   
    66   63   68 1   
    67   64   65 2   
    68   64   69 1   
    69   69   70 1   
    70   69   76 1   
    71   70   71 1   
    72   70   73 1   
    73   70   77 1   
    74   71   72 2   
    75   71   83 1   
    76   73   74 1   
    77   73   75 1   
    78   73   78 1   
    79   74   80 1   
    80   74   81 1   
    81   74   82 1   
    82   75   79 1   
    83   83   84 1   
    84   83   91 1   
    85   84   85 1   
    86   84   87 1   
    87   84   92 1   
    88   85   86 2   
    89   85  102 1   
    90   87   88 1   
    91   87   89 1   
    92   87   93 1   
    93   88   90 1   
    94   88   94 1   
    95   88   95 1   
    96   89   96 1   
    97   89   97 1   
    98   89   98 1   
    99   90   99 1   
   100   90  100 1   
   101   90  101 1   
   102  102  103 1   
   103  102  110 1   
   104  103  104 1   
   105  103  106 1   
   106  103  111 1   
   107  104  105 2   
   108  104  114 1   
   109  106  107 1   
   110  106  112 1   
   111  106  113 1   
   112  107  108 1   
   113  107  109 1   
   114  114  115 1   
   115  114  125 1   
   116  115  116 1   
   117  115  118 1   
   118  115  126 1   
   119  116  117 2   
   120  116  134 1   
   121  118  119 1   
   122  118  127 1   
   123  118  128 1   
   124  119  120 ar  
   125  119  121 ar  
   126  120  122 ar  
   127  120  129 1   
   128  121  123 ar  
   129  121  130 1   
   130  122  124 ar  
   131  122  131 1   
   132  123  124 ar  
   133  123  132 1   
   134  124  133 1   
   135  134  135 1   
   136  134  140 1   
   137  135  136 1   
   138  135  138 1   
   139  135  141 1   
   140  136  137 2   
   141  136  148 1   
   142  138  139 1   
   143  138  142 1   
   144  138  143 1   
   145  139  140 1   
   146  139  144 1   
   147  139  145 1   
   148  140  146 1   
   149  140  147 1   
   150  148  149 1   
   151  148  157 1   
   152  149  150 1   
   153  149  152 1   
   154  149  158 1   
   155  150  151 2   
   156  150  163 1   
   157  152  153 1   
   158  152  159 1   
   159  152  160 1   
   160  153  154 1   
   161  153  161 1   
   162  153  162 1   
   163  154  155 1   
   164  154  156 1   
   165  163  164 1   
   166  163  168 1   
   167  164  165 1   
   168  164  166 1   
   169  164  167 1   
   170  170  171 1   
   171  170  172 1   
   172  173  174 1   
   173  173  175 1   
@<TRIPOS>SUBSTRUCTURE
     1 MOL         1 TEMP              0 ****  ****    0 ROOT
