@<TRIPOS>MOLECULE
MOL
  186   183     1     0     0
SMALL
resp


@<TRIPOS>ATOM
      1 C1          0.1400   -2.1560    6.1040 c3        1 MOL     -0.271745
      2 C2          0.5550   -2.1570    4.6420 c         1 MOL      0.707308
      3 O1         -0.2500   -2.5330    3.7570 o         1 MOL     -0.559033
      4 H1          0.0020   -3.1830    6.4430 hc        1 MOL      0.062495
      5 H2          0.9160   -1.6770    6.7020 hc        1 MOL      0.062495
      6 H3         -0.7960   -1.6090    6.2160 hc        1 MOL      0.062495
      7 N1          1.7630   -1.6520    4.3050 n         1 MOL     -0.513772
      8 C3          2.4040   -1.7570    3.0330 c3        1 MOL      0.133830
      9 C4          2.6630   -3.1600    2.6220 c         1 MOL      0.502092
     10 O2          3.1830   -3.9290    3.4040 o         1 MOL     -0.630721
     11 C5          3.5700   -0.8630    3.0300 c3        1 MOL     -0.125115
     12 C6          4.2320   -0.6830    1.6620 c         1 MOL      0.750141
     13 O3          3.6930   -1.1860    0.5910 o         1 MOL     -0.672142
     14 O4          5.2610    0.0770    1.7180 o         1 MOL     -0.672142
     15 H4          2.3420   -1.1710    4.9770 hn        1 MOL      0.289668
     16 H5          1.6040   -1.4890    2.3410 h1        1 MOL     -0.062972
     17 H6          4.3110   -1.1480    3.7810 hc        1 MOL      0.023238
     18 H7          3.3170    0.1460    3.3350 hc        1 MOL      0.023238
     19 N2          2.2920   -3.5920    1.4490 n         1 MOL      0.003579
     20 C7          2.4050   -5.0440    0.8770 c3        1 MOL     -0.157016
     21 C8          3.5590   -5.1430   -0.1180 c         1 MOL      0.513570
     22 O5          4.2850   -6.1010   -0.0550 o         1 MOL     -0.568599
     23 C9          1.0270   -5.5330    0.2800 c3        1 MOL      0.115275
     24 C10        -0.0270   -5.4530    1.3290 c3        1 MOL      0.136663
     25 C11         1.0820   -7.0150   -0.2250 c3        1 MOL     -0.214098
     26 C12         0.3170   -6.1150    2.6740 c3        1 MOL     -0.245691
     27 H8          1.6730   -2.9620    0.9660 hn        1 MOL      0.005072
     28 H9          2.5450   -5.7490    1.6960 h1        1 MOL      0.096757
     29 H10         0.7380   -4.8240   -0.4930 hc        1 MOL     -0.009383
     30 H11        -0.9820   -5.8490    0.9740 hc        1 MOL     -0.013570
     31 H12        -0.2730   -4.3980    1.4670 hc        1 MOL     -0.013570
     32 H13         1.6020   -7.0790   -1.1780 hc        1 MOL      0.045698
     33 H14         1.4830   -7.7540    0.4630 hc        1 MOL      0.045698
     34 H15         0.0390   -7.2950   -0.3940 hc        1 MOL      0.045698
     35 H16         1.1600   -5.6040    3.1340 hc        1 MOL      0.047613
     36 H17        -0.6510   -6.2390    3.1620 hc        1 MOL      0.047613
     37 H18         0.6620   -7.1230    2.4380 hc        1 MOL      0.047613
     38 N3          3.6940   -4.1950   -1.0520 n         1 MOL     -0.235867
     39 C13         4.7460   -4.1090   -2.0410 c3        1 MOL     -0.181158
     40 C14         6.0640   -3.3150   -1.6780 c         1 MOL      0.487682
     41 O6          7.1020   -3.5890   -2.2780 o         1 MOL     -0.568718
     42 C15         4.2260   -3.6540   -3.3600 c3        1 MOL      0.012854
     43 C16         3.5730   -2.3160   -3.4470 c         1 MOL      0.667493
     44 O7          3.1100   -1.9490   -4.5710 o         1 MOL     -0.701971
     45 O8          3.5790   -1.5110   -2.4450 o         1 MOL     -0.701971
     46 H19         2.9760   -3.4870   -1.1090 hn        1 MOL      0.253713
     47 H20         5.0310   -5.1480   -2.2240 h1        1 MOL      0.106203
     48 H21         3.5190   -4.3270   -3.8370 hc        1 MOL      0.010659
     49 H22         5.0170   -3.6820   -4.1200 hc        1 MOL      0.010659
     50 N4          6.0990   -2.5280   -0.6220 n         1 MOL     -0.071275
     51 C17         7.3060   -1.9650    0.0250 c3        1 MOL     -0.129553
     52 C18         7.8030   -0.7000   -0.6740 c         1 MOL      0.453023
     53 O9          9.0580   -0.5680   -0.8670 o         1 MOL     -0.596030
     54 H23         5.2080   -2.2060   -0.2830 hn        1 MOL      0.013094
     55 H24         8.0770   -2.7240    0.1710 h1        1 MOL      0.087815
     56 H25         7.0650   -1.6840    1.0530 h1        1 MOL      0.087815
     57 N5          6.9240    0.2460   -1.0160 n         1 MOL     -0.075901
     58 C19         7.3270    1.4890   -1.5470 c3        1 MOL      0.052200
     59 C20         7.2910    2.5520   -0.4000 c         1 MOL      0.373178
     60 O10         7.5570    3.7310   -0.7050 o         1 MOL     -0.521747
     61 C21         6.5550    1.9620   -2.8300 c3        1 MOL     -0.050780
     62 C22         5.0040    1.9510   -2.5750 c         1 MOL      0.807679
     63 O11         4.2990    2.4980   -3.5170 o         1 MOL     -0.770725
     64 O12         4.5070    1.4810   -1.5490 o         1 MOL     -0.770725
     65 H26         5.9910    0.2460   -0.6520 hn        1 MOL     -0.039248
     66 H27         8.3720    1.4070   -1.8740 h1        1 MOL      0.053858
     67 H28         6.7520    1.2440   -3.6300 hc        1 MOL      0.014417
     68 H29         6.9030    2.9640   -3.0660 hc        1 MOL      0.014417
     69 N6          6.8600    2.2190    0.8730 n         1 MOL     -0.232540
     70 C23         6.8030    3.1980    1.8960 c3        1 MOL     -0.123413
     71 C24         5.5050    3.9290    1.9150 c         1 MOL      0.545203
     72 O13         5.4640    5.0690    2.3480 o         1 MOL     -0.588977
     73 H30         6.5090    1.3000    1.1140 hn        1 MOL      0.230132
     74 H31         7.6820    3.8230    1.7820 h1        1 MOL      0.073213
     75 H32         6.9410    2.6600    2.8330 h1        1 MOL      0.073213
     76 N7          4.3830    3.3200    1.5400 n         1 MOL     -0.273066
     77 C25         3.0370    3.9430    1.5890 c3        1 MOL     -0.170780
     78 C26         1.9290    2.9050    1.6620 c         1 MOL      0.621637
     79 O14         2.0310    1.8990    0.9680 o         1 MOL     -0.520815
     80 C27         2.7830    4.7870    0.3210 c3        1 MOL      0.164910
     81 C28         3.4900    6.1650    0.3640 c3        1 MOL     -0.398963
     82 C29         2.8470    7.1930   -0.5830 c         1 MOL      0.742285
     83 N8          3.0250    7.1440   -1.8730 n         1 MOL     -0.882102
     84 O15         2.1750    8.0790   -0.1760 o         1 MOL     -0.608083
     85 H33         4.4410    2.3710    1.1970 hn        1 MOL      0.231665
     86 H34         2.9530    4.6410    2.4260 h1        1 MOL      0.092464
     87 H35         1.7160    4.9870    0.2230 hc        1 MOL      0.036485
     88 H36         3.1040    4.2430   -0.5770 hc        1 MOL      0.036485
     89 H37         4.5420    5.9870    0.1350 hc        1 MOL      0.126020
     90 H38         3.5040    6.6720    1.3190 hc        1 MOL      0.126020
     91 H39         3.5870    6.4390   -2.3370 hn        1 MOL      0.378650
     92 H40         2.6520    7.9340   -2.3760 hn        1 MOL      0.378650
     93 N9          0.8570    3.1880    2.4370 n         1 MOL     -0.594817
     94 C30        -0.3020    2.4110    2.3220 c3        1 MOL      0.079833
     95 C31        -1.0930    2.9670    1.1060 c         1 MOL      0.384126
     96 O16        -1.0980    4.1520    0.8350 o         1 MOL     -0.555818
     97 C32        -1.2270    2.5020    3.5900 c3        1 MOL      0.327305
     98 C33        -2.0760    1.1680    3.7170 c3        1 MOL     -0.472385
     99 C34        -0.3960    2.6290    4.8770 c3        1 MOL     -0.472385
    100 H41         0.7260    4.0310    2.9750 hn        1 MOL      0.320480
    101 H42        -0.0650    1.3490    2.2240 h1        1 MOL      0.159356
    102 H43        -1.9290    3.3220    3.4300 hc        1 MOL     -0.035149
    103 H44        -2.8070    1.2180    2.9190 hc        1 MOL      0.106862
    104 H45        -1.4190    0.2990    3.6380 hc        1 MOL      0.106862
    105 H46        -2.6320    1.1220    4.6470 hc        1 MOL      0.106862
    106 H47         0.3970    1.8980    4.9860 hc        1 MOL      0.106862
    107 H48        -0.1360    3.6870    4.8420 hc        1 MOL      0.106862
    108 H49        -1.1470    2.5620    5.6690 hc        1 MOL      0.106862
    109 N10        -1.7650    2.1450    0.3340 n         1 MOL     -0.142588
    110 C35        -2.8360    2.5370   -0.6800 c3        1 MOL      0.374060
    111 C36        -4.1960    1.9500   -0.3310 c         1 MOL      0.124826
    112 O17        -4.3100    1.0930    0.5300 o         1 MOL     -0.222124
    113 C37        -2.3960    2.1640   -2.1250 c3        1 MOL     -0.421828
    114 C38        -3.3630    2.3160   -3.2710 c         1 MOL      0.676066
    115 N11        -3.8820    3.4730   -3.5460 n         1 MOL     -0.797807
    116 O18        -3.6390    1.3520   -3.9710 o         1 MOL     -0.516294
    117 H50        -1.5230    1.1870    0.5350 hn        1 MOL      0.056165
    118 H51        -2.8480    3.6220   -0.5810 h1        1 MOL     -0.026815
    119 H52        -2.0330    1.1370   -2.1020 hc        1 MOL      0.137852
    120 H53        -1.5410    2.8210   -2.2740 hc        1 MOL      0.137852
    121 H54        -3.7530    4.2380   -2.8860 hn        1 MOL      0.360814
    122 H55        -4.3660    3.5020   -4.4300 hn        1 MOL      0.360814
    123 N12        -5.3020    2.3930   -0.9220 n         1 MOL     -0.315409
    124 C39        -6.6140    1.8620   -0.5170 c3        1 MOL     -0.010297
    125 C40        -6.8780    0.3510   -0.4850 c         1 MOL      0.631641
    126 O19        -7.3310   -0.1730    0.5310 o         1 MOL     -0.543863
    127 C41        -7.7450    2.6440   -1.2880 c3        1 MOL     -0.146835
    128 C42        -9.1790    2.2180   -0.7170 ca        1 MOL     -0.090828
    129 C43        -9.4730    2.6860    0.5770 ca        1 MOL     -0.083059
    130 C44       -10.0040    1.2750   -1.3620 ca        1 MOL     -0.083059
    131 C45       -10.5450    2.1530    1.3100 ca        1 MOL     -0.320403
    132 C46       -11.1050    0.6880   -0.6750 ca        1 MOL     -0.320403
    133 C47       -11.3470    1.1020    0.7310 ca        1 MOL      0.386930
    134 O20       -12.4000    0.6800    1.4900 oh        1 MOL     -0.514890
    135 H56        -5.4220    3.2020   -1.5160 hn        1 MOL      0.216933
    136 H57        -6.7510    2.1880    0.5210 h1        1 MOL      0.088779
    137 H58        -7.7560    2.4840   -2.3730 hc        1 MOL      0.074132
    138 H59        -7.5260    3.7080   -1.2710 hc        1 MOL      0.074132
    139 H60        -8.7980    3.3850    1.0350 ha        1 MOL      0.121140
    140 H61        -9.6800    0.7570   -2.2490 ha        1 MOL      0.121140
    141 H62       -10.7040    2.4660    2.3320 ha        1 MOL      0.159167
    142 H63       -11.6950   -0.1500   -1.0260 ha        1 MOL      0.159167
    143 H64       -12.7770   -0.1190    1.1410 ho        1 MOL      0.372749
    144 N13        -6.4420   -0.2910   -1.5630 n         1 MOL     -0.448978
    145 C48        -6.5120   -1.7380   -1.6240 c3        1 MOL     -0.005641
    146 C49        -5.5170   -2.4150   -0.6110 c         1 MOL      0.359917
    147 O21        -5.6460   -3.5710   -0.3010 o         1 MOL     -0.503250
    148 C50        -6.2350   -2.2990   -3.0190 c3        1 MOL      0.047793
    149 C51        -4.7460   -2.3650   -3.3690 c3        1 MOL     -0.141074
    150 C52        -4.3160   -2.8320   -4.7720 c         1 MOL      0.699188
    151 O22        -4.4660   -4.0360   -5.0410 o         1 MOL     -0.720018
    152 O23        -3.9490   -2.0530   -5.7130 o         1 MOL     -0.720018
    153 H65        -6.0540    0.2770   -2.3010 hn        1 MOL      0.297827
    154 H66        -7.4800   -2.1020   -1.2820 h1        1 MOL      0.085948
    155 H67        -6.7020   -1.6170   -3.7370 hc        1 MOL     -0.000723
    156 H68        -6.8100   -3.2190   -3.0870 hc        1 MOL     -0.000723
    157 H69        -4.1170   -2.8740   -2.6260 hc        1 MOL      0.017178
    158 H70        -4.3780   -1.3440   -3.3060 hc        1 MOL      0.017178
    159 N14        -4.5330   -1.7370    0.0040 n         1 MOL     -0.122366
    160 C53        -3.7490   -2.1740    1.1420 c3        1 MOL     -0.044208
    161 C54        -4.6210   -2.0110    2.4630 c         1 MOL      0.369928
    162 O24        -4.6140   -2.8930    3.3150 o         1 MOL     -0.532000
    163 C55        -2.4080   -1.4400    1.2010 c3        1 MOL      0.107315
    164 C56        -1.5070   -1.9790    0.1080 c3        1 MOL     -0.103698
    165 C57        -0.1100   -1.3350   -0.0380 c         1 MOL      1.010413
    166 O25         0.9080   -1.9800   -0.5030 o         1 MOL     -0.804611
    167 O26         0.0440   -0.1150    0.1920 o         1 MOL     -0.804611
    168 H71        -4.6560   -0.7470   -0.1390 hn        1 MOL      0.085798
    169 H72        -3.4530   -3.2040    0.9330 h1        1 MOL      0.103731
    170 H73        -1.9970   -1.6330    2.2000 hc        1 MOL     -0.009962
    171 H74        -2.5560   -0.3600    1.1260 hc        1 MOL     -0.009962
    172 H75        -1.9240   -1.7420   -0.8650 hc        1 MOL      0.004442
    173 H76        -1.3260   -3.0280    0.3400 hc        1 MOL      0.004442
    174 N15        -5.3870   -0.8900    2.5930 n         1 MOL      0.034011
    175 C58        -6.2150   -0.5700    3.7110 c3        1 MOL     -0.337716
    176 H77        -5.9700   -1.2280    4.5440 h1        1 MOL      0.102837
    177 H78        -6.0450    0.4650    4.0060 h1        1 MOL      0.102837
    178 H79        -7.2630   -0.7030    3.4390 h1        1 MOL      0.102837
    179 H80        -5.2850   -0.1790    1.8830 hn        1 MOL      0.066178
    180 Ca1         2.4150    0.2740   -1.0790 Ca        1 MOL      1.760204
    181 O27         0.6470    0.1000   -3.0640 oh        1 MOL     -0.915669
    182 H81        -0.0460   -0.3180   -3.5820 ho        1 MOL      0.428413
    183 H82         1.2460    0.4600   -3.7060 ho        1 MOL      0.428413
    184 O28         1.7890    2.7200   -2.2700 oh        1 MOL     -0.915669
    185 H83         0.9590    3.0070   -2.6540 ho        1 MOL      0.428413
    186 H84         2.4530    2.9550   -2.9260 ho        1 MOL      0.428413
@<TRIPOS>BOND
     1    1    2 1   
     2    1    4 1   
     3    1    5 1   
     4    1    6 1   
     5    2    3 2   
     6    2    7 1   
     7    7    8 1   
     8    7   15 1   
     9    8    9 1   
    10    8   11 1   
    11    8   16 1   
    12    9   10 2   
    13    9   19 1   
    14   11   12 1   
    15   11   17 1   
    16   11   18 1   
    17   12   13 1   
    18   12   14 1   
    19   19   20 1   
    20   19   27 1   
    21   20   21 1   
    22   20   23 1   
    23   20   28 1   
    24   21   22 2   
    25   21   38 1   
    26   23   24 1   
    27   23   25 1   
    28   23   29 1   
    29   24   26 1   
    30   24   30 1   
    31   24   31 1   
    32   25   32 1   
    33   25   33 1   
    34   25   34 1   
    35   26   35 1   
    36   26   36 1   
    37   26   37 1   
    38   38   39 1   
    39   38   46 1   
    40   39   40 1   
    41   39   42 1   
    42   39   47 1   
    43   40   41 2   
    44   40   50 1   
    45   42   43 1   
    46   42   48 1   
    47   42   49 1   
    48   43   44 1   
    49   43   45 1   
    50   50   51 1   
    51   50   54 1   
    52   51   52 1   
    53   51   55 1   
    54   51   56 1   
    55   52   53 2   
    56   52   57 1   
    57   57   58 1   
    58   57   65 1   
    59   58   59 1   
    60   58   61 1   
    61   58   66 1   
    62   59   60 2   
    63   59   69 1   
    64   61   62 1   
    65   61   67 1   
    66   61   68 1   
    67   62   63 1   
    68   62   64 1   
    69   69   70 1   
    70   69   73 1   
    71   70   71 1   
    72   70   74 1   
    73   70   75 1   
    74   71   72 2   
    75   71   76 1   
    76   76   77 1   
    77   76   85 1   
    78   77   78 1   
    79   77   80 1   
    80   77   86 1   
    81   78   79 2   
    82   78   93 1   
    83   80   81 1   
    84   80   87 1   
    85   80   88 1   
    86   81   82 1   
    87   81   89 1   
    88   81   90 1   
    89   82   83 1   
    90   82   84 2   
    91   83   91 1   
    92   83   92 1   
    93   93   94 1   
    94   93  100 1   
    95   94   95 1   
    96   94   97 1   
    97   94  101 1   
    98   95   96 2   
    99   95  109 1   
   100   97   98 1   
   101   97   99 1   
   102   97  102 1   
   103   98  103 1   
   104   98  104 1   
   105   98  105 1   
   106   99  106 1   
   107   99  107 1   
   108   99  108 1   
   109  109  110 1   
   110  109  117 1   
   111  110  111 1   
   112  110  113 1   
   113  110  118 1   
   114  111  112 2   
   115  111  123 1   
   116  113  114 1   
   117  113  119 1   
   118  113  120 1   
   119  114  115 1   
   120  114  116 2   
   121  115  121 1   
   122  115  122 1   
   123  123  124 1   
   124  123  135 1   
   125  124  125 1   
   126  124  127 1   
   127  124  136 1   
   128  125  126 2   
   129  125  144 1   
   130  127  128 1   
   131  127  137 1   
   132  127  138 1   
   133  128  129 ar  
   134  128  130 ar  
   135  129  131 ar  
   136  129  139 1   
   137  130  132 ar  
   138  130  140 1   
   139  131  133 ar  
   140  131  141 1   
   141  132  133 ar  
   142  132  142 1   
   143  133  134 1   
   144  134  143 1   
   145  144  145 1   
   146  144  153 1   
   147  145  146 1   
   148  145  148 1   
   149  145  154 1   
   150  146  147 2   
   151  146  159 1   
   152  148  149 1   
   153  148  155 1   
   154  148  156 1   
   155  149  150 1   
   156  149  157 1   
   157  149  158 1   
   158  150  151 1   
   159  150  152 1   
   160  159  160 1   
   161  159  168 1   
   162  160  161 1   
   163  160  163 1   
   164  160  169 1   
   165  161  162 2   
   166  161  174 1   
   167  163  164 1   
   168  163  170 1   
   169  163  171 1   
   170  164  165 1   
   171  164  172 1   
   172  164  173 1   
   173  165  166 1   
   174  165  167 1   
   175  174  175 1   
   176  174  179 1   
   177  175  176 1   
   178  175  177 1   
   179  175  178 1   
   180  181  182 1   
   181  181  183 1   
   182  184  185 1   
   183  184  186 1   
@<TRIPOS>SUBSTRUCTURE
     1 MOL         1 TEMP              0 ****  ****    0 ROOT
