@<TRIPOS>MOLECULE
MOL
  186   183     1     0     0
SMALL
resp


@<TRIPOS>ATOM
      1 C1          0.8770   -1.4720    6.3770 c3        1 MOL     -0.432421
      2 C2          1.2130   -1.6040    4.9470 c         1 MOL      0.846840
      3 O1          0.4640   -2.2770    4.2150 o         1 MOL     -0.662052
      4 H1          1.7470   -1.7310    6.9800 hc        1 MOL      0.101294
      5 H2          0.5820   -0.4440    6.5880 hc        1 MOL      0.101294
      6 H3          0.0540   -2.1440    6.6210 hc        1 MOL      0.101294
      7 N1          2.3860   -1.1340    4.4900 n         1 MOL     -0.668569
      8 C3          2.8040   -1.2860    3.0850 c3        1 MOL      0.284159
      9 C4          3.1630   -2.7540    2.8720 c         1 MOL      0.432408
     10 O2          3.9650   -3.3540    3.5990 o         1 MOL     -0.569311
     11 C5          3.9700   -0.2820    2.7870 c3        1 MOL     -0.347478
     12 C6          4.6600   -0.5050    1.4170 c         1 MOL      0.878024
     13 O3          3.9970   -0.9040    0.4190 o         1 MOL     -0.682268
     14 O4          5.8310   -0.1570    1.1690 o         1 MOL     -0.682268
     15 H4          2.9140   -0.5600    5.1320 hn        1 MOL      0.315768
     16 H5          1.9920   -0.9980    2.4230 h1        1 MOL     -0.007461
     17 H6          4.8530   -0.4120    3.4120 hc        1 MOL      0.072051
     18 H7          3.7280    0.7810    2.8550 hc        1 MOL      0.072051
     19 N2          2.5990   -3.3540    1.8100 n         1 MOL     -0.120837
     20 C7          2.6970   -4.7850    1.5080 c3        1 MOL     -0.002456
     21 C8          3.6460   -5.1540    0.4060 c         1 MOL      0.498639
     22 O5          4.4790   -6.0390    0.6600 o         1 MOL     -0.589392
     23 C9          1.2980   -5.4010    1.0920 c3        1 MOL      0.157972
     24 C10         0.2380   -5.0030    2.1280 c3        1 MOL      0.166205
     25 C11         1.2350   -6.9440    0.9470 c3        1 MOL     -0.325840
     26 C12        -1.1600   -5.6640    2.1820 c3        1 MOL     -0.355567
     27 H8          1.9490   -2.7700    1.3050 hn        1 MOL      0.047929
     28 H9          3.0070   -5.3280    2.3930 h1        1 MOL      0.032808
     29 H10         1.1050   -5.0190    0.0890 hc        1 MOL      0.000387
     30 H11         0.0320   -3.9390    2.0470 hc        1 MOL      0.008667
     31 H12         0.6500   -5.1540    3.1250 hc        1 MOL      0.008667
     32 H13         1.9390   -7.2530    0.1740 hc        1 MOL      0.063283
     33 H14         1.4280   -7.5290    1.8470 hc        1 MOL      0.063283
     34 H15         0.2040   -7.1250    0.6500 hc        1 MOL      0.063283
     35 H16        -1.7240   -5.2350    3.0000 hc        1 MOL      0.074448
     36 H17        -1.8230   -5.3880    1.3700 hc        1 MOL      0.074448
     37 H18        -0.9390   -6.7190    2.3060 hc        1 MOL      0.074448
     38 N3          3.6140   -4.3230   -0.6560 n         1 MOL     -0.205270
     39 C13         4.4350   -4.5330   -1.9340 c3        1 MOL     -0.158763
     40 C14         5.6610   -3.6150   -1.9830 c         1 MOL      0.403865
     41 O6          6.3660   -3.6360   -2.9970 o         1 MOL     -0.495576
     42 C15         3.5490   -4.3990   -3.2440 c3        1 MOL     -0.136019
     43 C16         2.7580   -3.0820   -3.3560 c         1 MOL      0.850310
     44 O7          3.0150   -2.1480   -2.5860 o         1 MOL     -0.733586
     45 O8          1.8620   -3.0790   -4.1670 o         1 MOL     -0.733586
     46 H19         2.9190   -3.5840   -0.6320 hn        1 MOL      0.196178
     47 H20         4.8530   -5.5340   -1.9290 h1        1 MOL      0.117251
     48 H21         2.8410   -5.2290   -3.2230 hc        1 MOL      0.035327
     49 H22         4.0840   -4.4840   -4.1880 hc        1 MOL      0.035327
     50 N4          5.9920   -2.7830   -0.9750 n         1 MOL     -0.054290
     51 C17         7.2910   -2.3290   -0.6360 c3        1 MOL     -0.218157
     52 C18         7.7250   -1.1320   -1.4370 c         1 MOL      0.460600
     53 O9          8.5240   -1.2150   -2.3790 o         1 MOL     -0.548085
     54 H23         5.2510   -2.7060   -0.2910 hn        1 MOL      0.132426
     55 H24         7.9810   -3.1250   -0.9190 h1        1 MOL      0.089843
     56 H25         7.3100   -2.1550    0.4350 h1        1 MOL      0.089843
     57 N5          6.9720   -0.0270   -1.2960 n         1 MOL     -0.025124
     58 C19         7.3310    1.3320   -1.7930 c3        1 MOL     -0.058678
     59 C20         7.5250    2.4210   -0.8290 c         1 MOL      0.514052
     60 O10         8.1050    3.4600   -1.1200 o         1 MOL     -0.558309
     61 C21         6.3410    1.7210   -2.8620 c3        1 MOL     -0.145492
     62 C22         4.8690    1.4890   -2.4240 c         1 MOL      0.815637
     63 O11         4.0570    0.8730   -3.1150 o         1 MOL     -0.784141
     64 O12         4.4390    1.9610   -1.3980 o         1 MOL     -0.784141
     65 H26         6.2620   -0.1110   -0.5770 hn        1 MOL     -0.110029
     66 H27         8.3490    1.1560   -2.1420 h1        1 MOL      0.072355
     67 H28         6.5250    1.2010   -3.8020 hc        1 MOL      0.043151
     68 H29         6.4510    2.7750   -3.1500 hc        1 MOL      0.043151
     69 N6          7.1910    2.2180    0.4840 n         1 MOL     -0.326569
     70 C23         7.1070    3.2140    1.5160 c3        1 MOL     -0.071177
     71 C24         5.8380    4.1010    1.4580 c         1 MOL      0.572001
     72 O13         5.8220    5.2240    1.9240 o         1 MOL     -0.596269
     73 H30         6.8100    1.2980    0.6230 hn        1 MOL      0.249103
     74 H31         7.9940    3.8460    1.5380 h1        1 MOL      0.063428
     75 H32         6.9350    2.8240    2.5180 h1        1 MOL      0.063428
     76 N7          4.7460    3.6190    0.8090 n         1 MOL     -0.335813
     77 C25         3.4340    4.2440    1.0720 c3        1 MOL     -0.032737
     78 C26         2.2960    3.1700    1.2030 c         1 MOL      0.488300
     79 O14         2.3340    2.0650    0.6900 o         1 MOL     -0.623531
     80 C27         3.1360    5.1760   -0.1210 c3        1 MOL      0.157247
     81 C28         3.6450    6.5880   -0.0650 c3        1 MOL     -0.434142
     82 C29         2.9860    7.4690   -1.1320 c         1 MOL      0.699262
     83 N8          3.2880    7.2910   -2.3590 n         1 MOL     -0.797708
     84 O15         2.1530    8.3450   -0.8630 o         1 MOL     -0.606333
     85 H33         4.7270    2.7370    0.3270 hn        1 MOL      0.258286
     86 H34         3.5150    4.8520    1.9740 h1        1 MOL      0.078840
     87 H35         2.0690    5.3070   -0.3270 hc        1 MOL      0.033151
     88 H36         3.5340    4.7830   -1.0610 hc        1 MOL      0.033151
     89 H37         4.7250    6.6540   -0.1900 hc        1 MOL      0.120948
     90 H38         3.3500    7.0270    0.8880 hc        1 MOL      0.120948
     91 H39         3.9410    6.5530   -2.5680 hn        1 MOL      0.369164
     92 H40         2.8160    7.8420   -3.0640 hn        1 MOL      0.369164
     93 N9          1.1390    3.5050    1.7800 n         1 MOL     -0.487825
     94 C30        -0.1150    2.6320    1.8420 c3        1 MOL      0.561910
     95 C31        -1.0700    3.0700    0.7510 c         1 MOL      0.332405
     96 O16        -1.3080    4.2580    0.5900 o         1 MOL     -0.576442
     97 C32        -0.7670    2.7510    3.1940 c3        1 MOL      0.003867
     98 C33        -2.1190    1.9490    3.3060 c3        1 MOL     -0.186639
     99 C34         0.1120    2.4130    4.3800 c3        1 MOL     -0.186639
    100 H41         1.0420    4.5040    1.9220 hn        1 MOL      0.231273
    101 H42         0.2070    1.5960    1.7340 h1        1 MOL      0.068763
    102 H43        -0.9950    3.8210    3.2130 hc        1 MOL     -0.023073
    103 H44        -2.5780    1.9820    4.2910 hc        1 MOL      0.034121
    104 H45        -2.8650    2.3980    2.6580 hc        1 MOL      0.034121
    105 H46        -1.9450    0.8990    3.0840 hc        1 MOL      0.034121
    106 H47        -0.3600    2.4660    5.3570 hc        1 MOL      0.034121
    107 H48         0.3850    1.3570    4.2960 hc        1 MOL      0.034121
    108 H49         1.0920    2.8710    4.2500 hc        1 MOL      0.034121
    109 N10        -1.6830    2.1160    0.0090 n         1 MOL     -0.001444
    110 C35        -2.7540    2.1660   -0.9520 c3        1 MOL      0.235387
    111 C36        -4.1670    2.0030   -0.2900 c         1 MOL      0.105127
    112 O17        -4.2400    1.4490    0.7840 o         1 MOL     -0.181833
    113 C37        -2.4430    1.1330   -2.0600 c3        1 MOL     -0.358938
    114 C38        -3.5150    1.2770   -3.0520 c         1 MOL      0.725178
    115 N11        -3.6970    2.5290   -3.5650 n         1 MOL     -0.843562
    116 O18        -4.2560    0.3760   -3.4040 o         1 MOL     -0.522197
    117 H50        -1.2960    1.1930    0.2020 hn        1 MOL     -0.150729
    118 H51        -2.6860    3.1480   -1.4140 h1        1 MOL     -0.004900
    119 H52        -2.5150    0.1330   -1.6310 hc        1 MOL      0.153404
    120 H53        -1.4830    1.3940   -2.5070 hc        1 MOL      0.153404
    121 H54        -3.1950    3.3420   -3.2310 hn        1 MOL      0.365254
    122 H55        -4.4250    2.6190   -4.2510 hn        1 MOL      0.365254
    123 N12        -5.2520    2.4310   -0.9790 n         1 MOL     -0.237983
    124 C39        -6.5920    2.2610   -0.4320 c3        1 MOL      0.066082
    125 C40        -6.9380    0.7990   -0.1080 c         1 MOL      0.524977
    126 O19        -7.4510    0.3980    0.9570 o         1 MOL     -0.544744
    127 C41        -7.5860    2.8860   -1.4150 c3        1 MOL     -0.045630
    128 C42        -8.9970    2.5330   -0.9950 ca        1 MOL      0.028252
    129 C43        -9.5500    3.2310    0.1060 ca        1 MOL     -0.254076
    130 C44        -9.7110    1.5000   -1.6230 ca        1 MOL     -0.254076
    131 C45       -10.6890    2.7130    0.8020 ca        1 MOL     -0.159899
    132 C46       -10.8490    1.0430   -0.9300 ca        1 MOL     -0.159899
    133 C47       -11.3710    1.6400    0.2230 ca        1 MOL      0.319005
    134 O20       -12.6210    1.3400    0.6820 oh        1 MOL     -0.542156
    135 H56        -5.0460    3.0490   -1.7510 hn        1 MOL      0.195563
    136 H57        -6.6920    2.8370    0.4910 h1        1 MOL      0.041769
    137 H58        -7.3540    2.5640   -2.4300 hc        1 MOL      0.036876
    138 H59        -7.4290    3.9570   -1.4850 hc        1 MOL      0.036876
    139 H60        -9.1480    4.1840    0.4060 ha        1 MOL      0.160279
    140 H61        -9.2480    0.9180   -2.4060 ha        1 MOL      0.160279
    141 H62       -11.2500    3.1960    1.5970 ha        1 MOL      0.114974
    142 H63       -11.3940    0.1590   -1.2340 ha        1 MOL      0.114974
    143 H64       -13.1090    0.6300    0.2510 ho        1 MOL      0.383276
    144 N13        -6.5580   -0.1010   -1.0030 n         1 MOL     -0.251255
    145 C48        -6.6600   -1.5890   -0.8430 c3        1 MOL     -0.013602
    146 C49        -5.6830   -2.1300    0.0870 c         1 MOL      0.331609
    147 O21        -5.9180   -3.1610    0.6700 o         1 MOL     -0.508341
    148 C50        -6.3240   -2.1550   -2.2100 c3        1 MOL      0.379419
    149 C51        -6.6210   -3.6220   -2.3760 c3        1 MOL     -0.510601
    150 C52        -6.2530   -4.1080   -3.7820 c         1 MOL      0.793148
    151 O22        -5.4390   -3.5430   -4.5610 o         1 MOL     -0.749391
    152 O23        -6.7650   -5.1880   -4.2170 o         1 MOL     -0.749391
    153 H65        -6.1730    0.2690   -1.8590 hn        1 MOL      0.100552
    154 H66        -7.6810   -1.8140   -0.5580 h1        1 MOL      0.082664
    155 H67        -5.2980   -1.8730   -2.4370 hc        1 MOL     -0.060130
    156 H68        -7.0360   -1.7050   -2.9060 hc        1 MOL     -0.060130
    157 H69        -7.6600   -3.8250   -2.1420 hc        1 MOL      0.093984
    158 H70        -5.9040   -4.1000   -1.6930 hc        1 MOL      0.093984
    159 N14        -4.5340   -1.4840    0.4050 n         1 MOL     -0.135222
    160 C53        -3.6520   -1.8540    1.5170 c3        1 MOL     -0.079830
    161 C54        -4.2640   -1.4040    2.8790 c         1 MOL      0.442989
    162 O24        -4.2790   -2.1430    3.8560 o         1 MOL     -0.568609
    163 C55        -2.2610   -1.3590    1.2740 c3        1 MOL      0.190360
    164 C56        -1.4090   -2.1400    0.2690 c3        1 MOL     -0.040119
    165 C57        -0.1250   -1.4680   -0.0860 c         1 MOL      0.729318
    166 O25         0.9280   -2.2200   -0.2130 o         1 MOL     -0.743520
    167 O26         0.0730   -0.2330   -0.1040 o         1 MOL     -0.743520
    168 H71        -4.2590   -0.7460   -0.2280 hn        1 MOL      0.120404
    169 H72        -3.5710   -2.9340    1.6570 h1        1 MOL      0.104634
    170 H73        -1.8580   -1.6310    2.2460 hc        1 MOL     -0.008250
    171 H74        -2.2600   -0.2760    1.1310 hc        1 MOL     -0.008250
    172 H75        -2.0000   -2.2100   -0.6360 hc        1 MOL      0.018611
    173 H76        -1.2810   -3.1770    0.5790 hc        1 MOL      0.018611
    174 N15        -4.8790   -0.2410    2.9670 n         1 MOL      0.078864
    175 C58        -5.5220    0.2500    4.1690 c3        1 MOL     -0.296353
    176 H77        -4.8350    0.1600    5.0100 h1        1 MOL      0.094692
    177 H78        -5.7950    1.2960    4.0350 h1        1 MOL      0.094692
    178 H79        -6.4190   -0.3380    4.3680 h1        1 MOL      0.094692
    179 H80        -4.8820    0.3650    2.1650 hn        1 MOL     -0.038685
    180 Ca1         2.3700    0.0860   -1.2010 Ca        1 MOL      1.773171
    181 O27         2.0330    2.7600   -2.1550 oh        1 MOL     -0.904593
    182 H81         2.1930    2.9760   -3.0670 ho        1 MOL      0.418898
    183 H82         2.9070    2.5930   -1.7880 ho        1 MOL      0.418898
    184 O28         0.7450   -0.6190   -3.2810 oh        1 MOL     -0.904593
    185 H83        -0.0640   -0.5790   -3.7980 ho        1 MOL      0.418898
    186 H84         1.2400   -1.3460   -3.6640 ho        1 MOL      0.418898
@<TRIPOS>BOND
     1    1    2 1   
     2    1    4 1   
     3    1    5 1   
     4    1    6 1   
     5    2    3 2   
     6    2    7 1   
     7    7    8 1   
     8    7   15 1   
     9    8    9 1   
    10    8   11 1   
    11    8   16 1   
    12    9   10 2   
    13    9   19 1   
    14   11   12 1   
    15   11   17 1   
    16   11   18 1   
    17   12   13 1   
    18   12   14 1   
    19   19   20 1   
    20   19   27 1   
    21   20   21 1   
    22   20   23 1   
    23   20   28 1   
    24   21   22 2   
    25   21   38 1   
    26   23   24 1   
    27   23   25 1   
    28   23   29 1   
    29   24   26 1   
    30   24   30 1   
    31   24   31 1   
    32   25   32 1   
    33   25   33 1   
    34   25   34 1   
    35   26   35 1   
    36   26   36 1   
    37   26   37 1   
    38   38   39 1   
    39   38   46 1   
    40   39   40 1   
    41   39   42 1   
    42   39   47 1   
    43   40   41 2   
    44   40   50 1   
    45   42   43 1   
    46   42   48 1   
    47   42   49 1   
    48   43   44 1   
    49   43   45 1   
    50   50   51 1   
    51   50   54 1   
    52   51   52 1   
    53   51   55 1   
    54   51   56 1   
    55   52   53 2   
    56   52   57 1   
    57   57   58 1   
    58   57   65 1   
    59   58   59 1   
    60   58   61 1   
    61   58   66 1   
    62   59   60 2   
    63   59   69 1   
    64   61   62 1   
    65   61   67 1   
    66   61   68 1   
    67   62   63 1   
    68   62   64 1   
    69   69   70 1   
    70   69   73 1   
    71   70   71 1   
    72   70   74 1   
    73   70   75 1   
    74   71   72 2   
    75   71   76 1   
    76   76   77 1   
    77   76   85 1   
    78   77   78 1   
    79   77   80 1   
    80   77   86 1   
    81   78   79 2   
    82   78   93 1   
    83   80   81 1   
    84   80   87 1   
    85   80   88 1   
    86   81   82 1   
    87   81   89 1   
    88   81   90 1   
    89   82   83 1   
    90   82   84 2   
    91   83   91 1   
    92   83   92 1   
    93   93   94 1   
    94   93  100 1   
    95   94   95 1   
    96   94   97 1   
    97   94  101 1   
    98   95   96 2   
    99   95  109 1   
   100   97   98 1   
   101   97   99 1   
   102   97  102 1   
   103   98  103 1   
   104   98  104 1   
   105   98  105 1   
   106   99  106 1   
   107   99  107 1   
   108   99  108 1   
   109  109  110 1   
   110  109  117 1   
   111  110  111 1   
   112  110  113 1   
   113  110  118 1   
   114  111  112 2   
   115  111  123 1   
   116  113  114 1   
   117  113  119 1   
   118  113  120 1   
   119  114  115 1   
   120  114  116 2   
   121  115  121 1   
   122  115  122 1   
   123  123  124 1   
   124  123  135 1   
   125  124  125 1   
   126  124  127 1   
   127  124  136 1   
   128  125  126 2   
   129  125  144 1   
   130  127  128 1   
   131  127  137 1   
   132  127  138 1   
   133  128  129 ar  
   134  128  130 ar  
   135  129  131 ar  
   136  129  139 1   
   137  130  132 ar  
   138  130  140 1   
   139  131  133 ar  
   140  131  141 1   
   141  132  133 ar  
   142  132  142 1   
   143  133  134 1   
   144  134  143 1   
   145  144  145 1   
   146  144  153 1   
   147  145  146 1   
   148  145  148 1   
   149  145  154 1   
   150  146  147 2   
   151  146  159 1   
   152  148  149 1   
   153  148  155 1   
   154  148  156 1   
   155  149  150 1   
   156  149  157 1   
   157  149  158 1   
   158  150  151 1   
   159  150  152 1   
   160  159  160 1   
   161  159  168 1   
   162  160  161 1   
   163  160  163 1   
   164  160  169 1   
   165  161  162 2   
   166  161  174 1   
   167  163  164 1   
   168  163  170 1   
   169  163  171 1   
   170  164  165 1   
   171  164  172 1   
   172  164  173 1   
   173  165  166 1   
   174  165  167 1   
   175  174  175 1   
   176  174  179 1   
   177  175  176 1   
   178  175  177 1   
   179  175  178 1   
   180  181  182 1   
   181  181  183 1   
   182  184  185 1   
   183  184  186 1   
@<TRIPOS>SUBSTRUCTURE
     1 MOL         1 TEMP              0 ****  ****    0 ROOT
