@<TRIPOS>MOLECULE
MOL
  189   185     1     0     0
SMALL
resp


@<TRIPOS>ATOM
      1 C1         -0.0140    3.2110   -5.5810 c3        1 MOL     -0.251879
      2 C2          0.3450    2.9790   -4.1000 c         1 MOL      0.844063
      3 O1         -0.4750    3.1990   -3.2130 o         1 MOL     -0.668030
      4 H1          0.2610    4.2270   -5.8650 hc        1 MOL      0.060390
      5 H2          0.5280    2.5000   -6.2030 hc        1 MOL      0.060390
      6 H3         -1.0870    3.0740   -5.7210 hc        1 MOL      0.060390
      7 N1          1.5900    2.5200   -3.7980 n         1 MOL     -0.763715
      8 C3          1.9930    2.0770   -2.3930 c3        1 MOL      0.305642
      9 C4          2.3020    3.3020   -1.5160 c         1 MOL      0.434441
     10 O2          3.1780    4.0790   -1.8590 o         1 MOL     -0.564611
     11 C5          3.1610    1.0670   -2.5830 c3        1 MOL     -0.297918
     12 C6          3.8380    0.5030   -1.2960 c         1 MOL      0.791136
     13 O3          3.3010    0.6080   -0.1790 o         1 MOL     -0.668519
     14 O4          4.9460   -0.0660   -1.4830 o         1 MOL     -0.668519
     15 H4          2.3160    2.3110   -4.4690 hn        1 MOL      0.371775
     16 H5          1.1910    1.5240   -1.9120 h1        1 MOL     -0.033184
     17 H6          3.9050    1.5500   -3.2220 hc        1 MOL      0.064455
     18 H7          2.8100    0.1770   -3.0950 hc        1 MOL      0.064455
     19 N2          1.6320    3.5580   -0.4020 n         1 MOL     -0.090603
     20 C7          1.6620    4.8600    0.3200 c3        1 MOL      0.185227
     21 C8          2.5620    4.8340    1.5740 c         1 MOL      0.328343
     22 O5          3.2200    5.8320    1.8880 o         1 MOL     -0.553134
     23 C9          0.2400    5.4700    0.6410 c3        1 MOL     -0.203486
     24 C10        -0.7240    5.5910   -0.5040 c3        1 MOL      0.102457
     25 C11        -0.3530    6.6190   -1.6260 c3        1 MOL     -0.258021
     26 C12        -1.5810    6.8180   -2.5330 c3        1 MOL      0.181811
     27 N3         -1.1110    7.5990   -3.7380 n4        1 MOL     -0.444882
     28 H8          0.8810    2.9010   -0.2550 hn        1 MOL      0.118836
     29 H9          2.2290    5.6050   -0.2350 h1        1 MOL      0.042442
     30 H10         0.3590    6.5130    0.9170 hc        1 MOL      0.057389
     31 H11        -0.2570    4.8550    1.3880 hc        1 MOL      0.057389
     32 H12        -1.7580    5.8570   -0.3130 hc        1 MOL      0.029815
     33 H13        -0.8140    4.5970   -0.9470 hc        1 MOL      0.029815
     34 H14         0.5740    6.3300   -2.1260 hc        1 MOL      0.078363
     35 H15        -0.2450    7.5780   -1.1130 hc        1 MOL      0.078363
     36 H16        -2.4710    7.3340   -2.1770 hx        1 MOL      0.065133
     37 H17        -1.9740    5.8770   -2.9260 hx        1 MOL      0.065133
     38 H18        -0.4130    7.0470   -4.2290 hn        1 MOL      0.337327
     39 H19        -1.9600    7.8540   -4.2080 hn        1 MOL      0.337327
     40 H20        -0.6650    8.4650   -3.4500 hn        1 MOL      0.337327
     41 N4          2.6670    3.7000    2.2230 n         1 MOL      0.002789
     42 C13         3.6300    3.4760    3.2910 c3        1 MOL      0.075133
     43 C14         4.8990    2.8010    2.7640 c         1 MOL      0.424314
     44 O6          5.8200    2.6040    3.5790 o         1 MOL     -0.484905
     45 C15         3.0290    2.8730    4.5830 c3        1 MOL     -0.251690
     46 C16         2.3500    1.5020    4.3400 c         1 MOL      0.802117
     47 O7          2.6620    0.8940    3.2780 o         1 MOL     -0.705917
     48 O8          1.5900    0.9370    5.1700 o         1 MOL     -0.705917
     49 H21         2.4280    2.9130    1.6200 hn        1 MOL     -0.185118
     50 H22         4.0990    4.4180    3.5810 h1        1 MOL      0.089081
     51 H23         2.2600    3.5590    4.9250 hc        1 MOL      0.058096
     52 H24         3.8020    2.8800    5.3470 hc        1 MOL      0.058096
     53 N5          5.0700    2.5410    1.4170 n         1 MOL     -0.306938
     54 C17         6.3560    2.2780    0.7450 c3        1 MOL     -0.016219
     55 C18         7.0860    1.0110    1.2700 c         1 MOL      0.476665
     56 O9          8.2580    1.1280    1.6280 o         1 MOL     -0.585818
     57 H25         4.3140    2.6280    0.7550 hn        1 MOL      0.260832
     58 H26         7.0680    3.0920    0.8490 h1        1 MOL      0.055113
     59 H27         6.2310    2.1960   -0.3270 h1        1 MOL      0.055113
     60 N6          6.4530   -0.1380    1.3110 n         1 MOL     -0.152817
     61 C19         7.0010   -1.3630    1.8820 c3        1 MOL      0.052436
     62 C20         7.1580   -2.4190    0.8090 c         1 MOL      0.345536
     63 O10         7.3570   -3.5730    1.1240 o         1 MOL     -0.491797
     64 C21         6.0240   -1.8940    2.9540 c3        1 MOL     -0.265231
     65 C22         4.5860   -2.1730    2.4590 c         1 MOL      0.761871
     66 O11         3.6560   -2.1650    3.2810 o         1 MOL     -0.699988
     67 O12         4.2790   -2.2410    1.2420 o         1 MOL     -0.699988
     68 H28         5.5330   -0.1940    0.9070 hn        1 MOL      0.031542
     69 H29         7.9730   -1.2180    2.3470 h1        1 MOL      0.112323
     70 H30         5.9700   -1.1070    3.7180 hc        1 MOL      0.091420
     71 H31         6.4580   -2.7970    3.3860 hc        1 MOL      0.091420
     72 N7          6.9250   -2.0800   -0.4790 n         1 MOL     -0.254130
     73 C23         7.0870   -2.9310   -1.6120 c3        1 MOL     -0.159011
     74 C24         5.8240   -3.7640   -1.8760 c         1 MOL      0.555067
     75 O13         5.8860   -4.6910   -2.7080 o         1 MOL     -0.600307
     76 H32         6.6420   -1.1420   -0.7360 hn        1 MOL      0.251703
     77 H33         7.9080   -3.6040   -1.3820 h1        1 MOL      0.101694
     78 H34         7.3840   -2.3110   -2.4660 h1        1 MOL      0.101694
     79 N8          4.6910   -3.4830   -1.2270 n         1 MOL     -0.104902
     80 C25         3.4560   -4.1740   -1.4500 c3        1 MOL     -0.372377
     81 C26         2.2090   -3.2100   -1.5330 c         1 MOL      0.865639
     82 O14         2.1300   -2.2850   -0.6840 o         1 MOL     -0.761113
     83 C27         3.1350   -5.2470   -0.4250 c3        1 MOL      0.698272
     84 C28         3.7810   -6.5540   -0.8130 c3        1 MOL     -0.408399
     85 O15         3.5760   -4.8090    0.8620 oh        1 MOL     -0.767191
     86 H35         4.7150   -2.7250   -0.5600 hn        1 MOL      0.096301
     87 H36         3.5030   -4.6260   -2.4490 h1        1 MOL      0.087099
     88 H37         2.0610   -5.3210   -0.5190 h1        1 MOL     -0.095896
     89 H38         3.8250   -3.8830    0.8410 ho        1 MOL      0.571284
     90 H39         3.0630   -7.1690   -1.3600 hc        1 MOL      0.089321
     91 H40         4.7540   -6.4980   -1.3120 hc        1 MOL      0.089321
     92 H41         3.8660   -7.1380    0.1040 hc        1 MOL      0.089321
     93 N9          1.1100   -3.5050   -2.2790 n         1 MOL     -0.686175
     94 C29        -0.0760   -2.5940   -2.3680 c3        1 MOL      0.132102
     95 C30        -1.2980   -3.2200   -1.7850 c         1 MOL      0.577100
     96 O16        -1.7720   -4.2200   -2.1960 o         1 MOL     -0.571812
     97 C31        -0.3530   -2.2740   -3.8370 c3        1 MOL      0.200589
     98 C32         0.8230   -1.4600   -4.3470 c3        1 MOL     -0.023833
     99 C33        -1.6310   -1.4320   -4.0720 c3        1 MOL     -0.150608
    100 C34         1.0600   -1.5120   -5.9120 c3        1 MOL     -0.362375
    101 H42         1.1820   -4.2900   -2.9130 hn        1 MOL      0.303760
    102 H43         0.1440   -1.6820   -1.8040 h1        1 MOL      0.075043
    103 H44        -0.5640   -3.2060   -4.3560 hc        1 MOL      0.002491
    104 H45         1.7370   -1.7080   -3.8220 hc        1 MOL      0.037540
    105 H46         0.7210   -0.4130   -4.0580 hc        1 MOL      0.037540
    106 H47        -2.5070   -2.0700   -4.0760 hc        1 MOL      0.010820
    107 H48        -1.6960   -0.7520   -3.2330 hc        1 MOL      0.010820
    108 H49        -1.5140   -0.7950   -4.9460 hc        1 MOL      0.010820
    109 H50         1.9620   -0.8890   -5.9890 hc        1 MOL      0.091391
    110 H51         1.1160   -2.5070   -6.3370 hc        1 MOL      0.091391
    111 H52         0.3200   -0.9550   -6.4830 hc        1 MOL      0.091391
    112 N10        -1.9890   -2.5040   -0.8700 n         1 MOL     -0.258749
    113 C35        -3.2350   -3.0080   -0.1510 c3        1 MOL      0.001272
    114 C36        -4.5380   -2.5710   -0.8290 c         1 MOL      0.351827
    115 O17        -4.5060   -1.7990   -1.7600 o         1 MOL     -0.335819
    116 C37        -3.3990   -2.4860    1.2730 c3        1 MOL      0.063396
    117 C38        -2.0020   -2.6650    1.9040 c3        1 MOL     -0.239422
    118 O18        -3.9530   -1.1440    1.3860 oh        1 MOL     -0.239939
    119 H53        -1.5750   -1.6480   -0.5390 hn        1 MOL      0.193053
    120 H54        -3.2990   -4.0900   -0.0750 h1        1 MOL      0.077613
    121 H55        -4.1350   -3.1070    1.7850 h1        1 MOL      0.014621
    122 H56        -3.8390   -0.8690    2.2990 ho        1 MOL      0.310011
    123 H57        -1.4890   -1.7250    1.7650 hc        1 MOL      0.069351
    124 H58        -2.2130   -2.7730    2.9730 hc        1 MOL      0.069351
    125 H59        -1.3980   -3.5410    1.6420 hc        1 MOL      0.069351
    126 N11        -5.6210   -3.1980   -0.3990 n         1 MOL     -0.346041
    127 C39        -6.9790   -2.7210   -0.7460 c3        1 MOL     -0.067493
    128 C40        -7.2690   -1.2660   -0.3150 c         1 MOL      0.253469
    129 O19        -8.0060   -0.5840   -1.0940 o         1 MOL     -0.480258
    130 C41        -8.0330   -3.6560   -0.1480 c3        1 MOL      0.278471
    131 C42        -7.9040   -5.0730   -0.6310 c3        1 MOL     -0.494472
    132 O20        -7.9640   -3.6900    1.2210 oh        1 MOL     -0.621523
    133 H60        -5.5500   -3.9800    0.2370 hn        1 MOL      0.287537
    134 H61        -6.9930   -2.7050   -1.8360 h1        1 MOL      0.147762
    135 H62        -8.9870   -3.1740   -0.3980 h1        1 MOL      0.036585
    136 H63        -8.7090   -4.2240    1.5050 ho        1 MOL      0.408364
    137 H64        -7.9730   -5.0500   -1.7210 hc        1 MOL      0.144696
    138 H65        -6.9480   -5.4470   -0.2890 hc        1 MOL      0.144696
    139 H66        -8.6070   -5.7290   -0.1030 hc        1 MOL      0.144696
    140 N12        -6.7040   -0.6560    0.7480 n         1 MOL      0.041045
    141 C43        -6.9560    0.7250    1.0190 c3        1 MOL     -0.097073
    142 C44        -6.0350    1.6990    0.2240 c         1 MOL      0.350634
    143 O21        -6.5000    2.7320   -0.2270 o         1 MOL     -0.507214
    144 C45        -6.7630    1.1560    2.5460 c3        1 MOL     -0.039006
    145 C46        -7.7880    0.3970    3.3550 c3        1 MOL     -0.103121
    146 C47        -7.5830    0.8460    4.8270 c3        1 MOL     -0.154423
    147 C48        -8.4170   -0.0110    5.8120 c3        1 MOL      0.136245
    148 N13        -9.8150   -0.3060    5.3420 n4        1 MOL     -0.304176
    149 H67        -6.2490   -1.2260    1.4450 hn        1 MOL      0.131079
    150 H68        -7.9740    0.9640    0.7150 h1        1 MOL      0.110239
    151 H69        -6.9530    2.2290    2.6860 hc        1 MOL      0.053395
    152 H70        -5.7720    0.9800    2.9620 hc        1 MOL      0.053395
    153 H71        -7.6780   -0.6530    3.0990 hc        1 MOL      0.012777
    154 H72        -8.8130    0.6230    3.0710 hc        1 MOL      0.012777
    155 H73        -7.7970    1.9090    4.9820 hc        1 MOL      0.105848
    156 H74        -6.5430    0.9180    5.1320 hc        1 MOL      0.105848
    157 H75        -8.4650    0.5440    6.7400 hx        1 MOL      0.043001
    158 H76        -7.9070   -0.9400    6.0880 hx        1 MOL      0.043001
    159 H77       -10.4550   -0.6020    6.0590 hn        1 MOL      0.300737
    160 H78       -10.0640    0.4540    4.7230 hn        1 MOL      0.300737
    161 H79        -9.6760   -1.1510    4.8060 hn        1 MOL      0.300737
    162 N14        -4.8030    1.3480   -0.0100 n         1 MOL     -0.035796
    163 C49        -3.8150    2.0390   -0.8980 c3        1 MOL     -0.095734
    164 C50        -4.2140    1.9800   -2.3980 c         1 MOL      0.434661
    165 O22        -4.2710    3.0490   -2.9700 o         1 MOL     -0.553224
    166 C51        -2.4560    1.4000   -0.7160 c3        1 MOL      0.023459
    167 C52        -1.9290    1.6640    0.7140 c3        1 MOL     -0.093466
    168 C53        -0.5310    1.0490    0.8340 c         1 MOL      0.640142
    169 O23        -0.2850   -0.0250    0.2250 o         1 MOL     -0.667213
    170 O24         0.3580    1.6370    1.5600 o         1 MOL     -0.667213
    171 H80        -4.5240    0.5150    0.4760 hn        1 MOL     -0.017394
    172 H81        -3.6940    3.0890   -0.6070 h1        1 MOL      0.072242
    173 H82        -1.7600    1.8250   -1.4360 hc        1 MOL      0.031823
    174 H83        -2.6280    0.3370   -0.8980 hc        1 MOL      0.031823
    175 H84        -2.5440    1.1010    1.4160 hc        1 MOL     -0.005051
    176 H85        -1.9270    2.7190    0.9810 hc        1 MOL     -0.005051
    177 N15        -4.6580    0.8490   -2.9280 n         1 MOL     -0.008820
    178 C54        -5.3160    0.8500   -4.2410 c3        1 MOL     -0.342098
    179 H86        -4.8210    1.5680   -4.8940 h1        1 MOL      0.121781
    180 H87        -5.2520   -0.1450   -4.6810 h1        1 MOL      0.121781
    181 H88        -6.3630    1.1290   -4.1230 h1        1 MOL      0.121781
    182 H89        -4.6230   -0.0200   -2.4080 hn        1 MOL      0.100546
    183 Ca1         1.9670   -0.7000    1.5710 Ca        1 MOL      1.806686
    184 O25         0.2930   -0.8040    3.7250 oh        1 MOL     -0.881886
    185 H90         0.8070   -0.2470    4.3020 ho        1 MOL      0.400786
    186 H91        -0.5610   -0.8800    4.1540 ho        1 MOL      0.400786
    187 O26         0.9960   -3.3790    1.6720 oh        1 MOL     -0.881886
    188 H92         1.3570   -4.2490    1.4820 ho        1 MOL      0.400786
    189 H93         0.4020   -3.5310    2.4130 ho        1 MOL      0.400786
@<TRIPOS>BOND
     1    1    2 1   
     2    1    4 1   
     3    1    5 1   
     4    1    6 1   
     5    2    3 2   
     6    2    7 1   
     7    7    8 1   
     8    7   15 1   
     9    8    9 1   
    10    8   11 1   
    11    8   16 1   
    12    9   10 2   
    13    9   19 1   
    14   11   12 1   
    15   11   17 1   
    16   11   18 1   
    17   12   13 1   
    18   12   14 1   
    19   19   20 1   
    20   19   28 1   
    21   20   21 1   
    22   20   23 1   
    23   20   29 1   
    24   21   22 2   
    25   21   41 1   
    26   23   24 1   
    27   23   30 1   
    28   23   31 1   
    29   24   25 1   
    30   24   32 1   
    31   24   33 1   
    32   25   26 1   
    33   25   34 1   
    34   25   35 1   
    35   26   27 1   
    36   26   36 1   
    37   26   37 1   
    38   27   38 1   
    39   27   39 1   
    40   27   40 1   
    41   41   42 1   
    42   41   49 1   
    43   42   43 1   
    44   42   45 1   
    45   42   50 1   
    46   43   44 2   
    47   43   53 1   
    48   45   46 1   
    49   45   51 1   
    50   45   52 1   
    51   46   47 1   
    52   46   48 1   
    53   53   54 1   
    54   53   57 1   
    55   54   55 1   
    56   54   58 1   
    57   54   59 1   
    58   55   56 2   
    59   55   60 1   
    60   60   61 1   
    61   60   68 1   
    62   61   62 1   
    63   61   64 1   
    64   61   69 1   
    65   62   63 2   
    66   62   72 1   
    67   64   65 1   
    68   64   70 1   
    69   64   71 1   
    70   65   66 1   
    71   65   67 1   
    72   72   73 1   
    73   72   76 1   
    74   73   74 1   
    75   73   77 1   
    76   73   78 1   
    77   74   75 2   
    78   74   79 1   
    79   79   80 1   
    80   79   86 1   
    81   80   81 1   
    82   80   83 1   
    83   80   87 1   
    84   81   82 2   
    85   81   93 1   
    86   83   84 1   
    87   83   85 1   
    88   83   88 1   
    89   84   90 1   
    90   84   91 1   
    91   84   92 1   
    92   85   89 1   
    93   93   94 1   
    94   93  101 1   
    95   94   95 1   
    96   94   97 1   
    97   94  102 1   
    98   95   96 2   
    99   95  112 1   
   100   97   98 1   
   101   97   99 1   
   102   97  103 1   
   103   98  100 1   
   104   98  104 1   
   105   98  105 1   
   106   99  106 1   
   107   99  107 1   
   108   99  108 1   
   109  100  109 1   
   110  100  110 1   
   111  100  111 1   
   112  112  113 1   
   113  112  119 1   
   114  113  114 1   
   115  113  116 1   
   116  113  120 1   
   117  114  115 2   
   118  114  126 1   
   119  116  117 1   
   120  116  118 1   
   121  116  121 1   
   122  117  123 1   
   123  117  124 1   
   124  117  125 1   
   125  118  122 1   
   126  126  127 1   
   127  126  133 1   
   128  127  128 1   
   129  127  130 1   
   130  127  134 1   
   131  128  129 2   
   132  128  140 1   
   133  130  131 1   
   134  130  132 1   
   135  130  135 1   
   136  131  137 1   
   137  131  138 1   
   138  131  139 1   
   139  132  136 1   
   140  140  141 1   
   141  140  149 1   
   142  141  142 1   
   143  141  144 1   
   144  141  150 1   
   145  142  143 2   
   146  142  162 1   
   147  144  145 1   
   148  144  151 1   
   149  144  152 1   
   150  145  146 1   
   151  145  153 1   
   152  145  154 1   
   153  146  147 1   
   154  146  155 1   
   155  146  156 1   
   156  147  148 1   
   157  147  157 1   
   158  147  158 1   
   159  148  159 1   
   160  148  160 1   
   161  148  161 1   
   162  162  163 1   
   163  162  171 1   
   164  163  164 1   
   165  163  166 1   
   166  163  172 1   
   167  164  165 2   
   168  164  177 1   
   169  166  167 1   
   170  166  173 1   
   171  166  174 1   
   172  167  168 1   
   173  167  175 1   
   174  167  176 1   
   175  168  169 1   
   176  168  170 1   
   177  177  178 1   
   178  177  182 1   
   179  178  179 1   
   180  178  180 1   
   181  178  181 1   
   182  184  185 1   
   183  184  186 1   
   184  187  188 1   
   185  187  189 1   
@<TRIPOS>SUBSTRUCTURE
     1 MOL         1 TEMP              0 ****  ****    0 ROOT
