@<TRIPOS>MOLECULE
MOL
  186   183     1     0     0
SMALL
resp


@<TRIPOS>ATOM
      1 C1          0.2380    2.0380    5.7550 c3        1 MOL     -0.173396
      2 C2         -0.1480    1.9190    4.2940 c         1 MOL      0.717298
      3 O1          0.7260    1.8290    3.4110 o         1 MOL     -0.618907
      4 H1          0.3070    3.0910    6.0280 hc        1 MOL      0.041164
      5 H2         -0.5190    1.5530    6.3720 hc        1 MOL      0.041164
      6 H3          1.2020    1.5570    5.9160 hc        1 MOL      0.041164
      7 N1         -1.4520    1.7990    3.9880 n         1 MOL     -0.579825
      8 C3         -1.9350    1.7050    2.6100 c3        1 MOL      0.315675
      9 C4         -2.3860    3.1310    2.1520 c         1 MOL      0.335777
     10 O2         -3.2670    3.7120    2.6920 o         1 MOL     -0.497318
     11 C5         -3.1160    0.7980    2.5430 c3        1 MOL     -0.506942
     12 C6         -3.8220    0.5260    1.1480 c         1 MOL      0.803673
     13 O3         -4.8620   -0.1890    1.1050 o         1 MOL     -0.658525
     14 O4         -3.3240    1.0040    0.1210 o         1 MOL     -0.658525
     15 H4         -2.1200    1.8810    4.7380 hn        1 MOL      0.311271
     16 H5         -1.1780    1.3490    1.9180 h1        1 MOL      0.033094
     17 H6         -3.8900    1.1360    3.2400 hc        1 MOL      0.122196
     18 H7         -2.7380   -0.1860    2.8290 hc        1 MOL      0.122196
     19 N2         -1.8670    3.5750    0.9720 n         1 MOL     -0.446445
     20 C7         -2.2130    4.9530    0.5750 c3        1 MOL     -0.094162
     21 C8         -3.2850    4.9860   -0.4990 c         1 MOL      0.464256
     22 O5         -3.6780    6.0300   -1.0480 o         1 MOL     -0.557444
     23 C9         -0.8940    5.5960    0.0890 c3        1 MOL      0.033474
     24 C10         0.3230    5.7040    1.0400 c3        1 MOL     -0.071965
     25 C11         0.0690    6.0510    2.4740 c3        1 MOL     -0.081013
     26 C12         1.3640    6.6200    3.0950 c3        1 MOL      0.080515
     27 N3          1.1880    6.8740    4.5300 n4        1 MOL     -0.354394
     28 H8         -1.2080    3.0040    0.4590 hn        1 MOL      0.353334
     29 H9         -2.6030    5.4760    1.4440 h1        1 MOL      0.114455
     30 H10        -1.0620    6.6290   -0.2020 hc        1 MOL      0.030145
     31 H11        -0.6050    5.0650   -0.8130 hc        1 MOL      0.030145
     32 H12         1.0180    6.3850    0.5500 hc        1 MOL      0.047027
     33 H13         0.9310    4.7980    0.9240 hc        1 MOL      0.047027
     34 H14        -0.2600    5.1900    3.0600 hc        1 MOL      0.047103
     35 H15        -0.7420    6.7680    2.5820 hc        1 MOL      0.047103
     36 H16         1.5250    7.5940    2.6400 hx        1 MOL      0.068742
     37 H17         2.1940    5.9510    2.8760 hx        1 MOL      0.068742
     38 H18         1.0390    5.9870    4.9940 hn        1 MOL      0.325019
     39 H19         2.0370    7.2020    4.9550 hn        1 MOL      0.325019
     40 H20         0.3750    7.4660    4.6710 hn        1 MOL      0.325019
     41 N4         -3.7410    3.8060   -0.8290 n         1 MOL     -0.180242
     42 C13        -4.7390    3.5200   -1.9250 c3        1 MOL     -0.190639
     43 C14        -6.1260    3.2000   -1.4480 c         1 MOL      0.567689
     44 O6         -7.0830    3.7110   -2.0110 o         1 MOL     -0.529311
     45 C15        -4.1570    2.4030   -2.8310 c3        1 MOL      0.203206
     46 C16        -2.6860    2.4800   -3.2900 c         1 MOL      0.604046
     47 O7         -2.2100    3.4820   -3.8390 o         1 MOL     -0.651643
     48 O8         -1.9780    1.5110   -2.9600 o         1 MOL     -0.651643
     49 H21        -3.2840    3.0250   -0.3830 hn        1 MOL      0.258760
     50 H22        -4.8150    4.3770   -2.5990 h1        1 MOL      0.106134
     51 H23        -4.7510    2.3030   -3.7420 hc        1 MOL     -0.068163
     52 H24        -4.2260    1.4560   -2.3110 hc        1 MOL     -0.068163
     53 N5         -6.2850    2.4370   -0.3650 n         1 MOL     -0.387248
     54 C17        -7.5660    1.8050    0.0100 c3        1 MOL     -0.147579
     55 C18        -7.8650    0.4490   -0.7090 c         1 MOL      0.494452
     56 O9         -9.0610    0.2460   -1.0210 o         1 MOL     -0.570060
     57 H25        -5.4350    2.0000   -0.0140 hn        1 MOL      0.238377
     58 H26        -8.3770    2.4670   -0.2980 h1        1 MOL      0.106964
     59 H27        -7.5050    1.6430    1.0880 h1        1 MOL      0.106964
     60 N6         -6.8630   -0.3680   -0.9660 n         1 MOL     -0.228585
     61 C19        -6.9920   -1.7030   -1.6300 c3        1 MOL     -0.038780
     62 C20        -6.8170   -2.9240   -0.7540 c         1 MOL      0.403802
     63 O10        -7.0650   -4.0400   -1.2080 o         1 MOL     -0.513839
     64 C21        -6.0310   -1.8330   -2.8560 c3        1 MOL     -0.287421
     65 C22        -4.5600   -1.7100   -2.4460 c         1 MOL      0.836618
     66 O11        -4.0150   -2.1900   -1.4150 o         1 MOL     -0.784961
     67 O12        -3.7650   -1.0560   -3.1930 o         1 MOL     -0.784961
     68 H28        -5.9940   -0.1250   -0.5160 hn        1 MOL      0.215517
     69 H29        -8.0130   -1.8490   -1.9850 h1        1 MOL      0.126742
     70 H30        -6.3170   -1.0810   -3.5800 hc        1 MOL      0.109249
     71 H31        -6.1230   -2.7930   -3.3730 hc        1 MOL      0.109249
     72 N7         -6.6000   -2.7480    0.5210 n         1 MOL     -0.224575
     73 C23        -6.4810   -3.7890    1.5230 c3        1 MOL     -0.187523
     74 C24        -5.2270   -4.6190    1.3870 c         1 MOL      0.511318
     75 O13        -5.2080   -5.7650    1.8870 o         1 MOL     -0.550949
     76 H32        -6.3460   -1.8300    0.8590 hn        1 MOL      0.211575
     77 H33        -7.3260   -4.4710    1.4420 h1        1 MOL      0.107488
     78 H34        -6.5280   -3.2720    2.4890 h1        1 MOL      0.107488
     79 N8         -4.1660   -3.9870    0.8820 n         1 MOL     -0.152389
     80 C25        -2.7850   -4.6440    0.7000 c3        1 MOL     -0.396664
     81 C26        -1.7170   -3.5370    0.8230 c         1 MOL      0.670119
     82 O14        -2.0030   -2.3530    0.5800 o         1 MOL     -0.658636
     83 C27        -2.5520   -5.3990   -0.6090 c3        1 MOL      0.519677
     84 C28        -3.4730   -6.6270   -0.7620 c3        1 MOL     -0.458331
     85 O15        -2.7520   -4.5060   -1.6770 oh        1 MOL     -0.680995
     86 H35        -4.2570   -3.0320    0.5340 hn        1 MOL      0.215944
     87 H36        -2.6070   -5.2920    1.5560 h1        1 MOL      0.135932
     88 H37        -1.5190   -5.7510   -0.6180 h1        1 MOL     -0.008500
     89 H38        -3.3110   -3.7940   -1.3650 ho        1 MOL      0.430301
     90 H39        -4.5140   -6.3320   -0.9050 hc        1 MOL      0.120181
     91 H40        -3.0320   -7.1200   -1.6350 hc        1 MOL      0.120181
     92 H41        -3.4140   -7.3860    0.0140 hc        1 MOL      0.120181
     93 N9         -0.5520   -3.9360    1.2360 n         1 MOL     -0.567281
     94 C29         0.6390   -3.1270    1.4650 c3        1 MOL      0.106885
     95 C30         1.7890   -3.6010    0.5610 c         1 MOL      0.484372
     96 O16         2.1010   -4.7820    0.5910 o         1 MOL     -0.548357
     97 C31         1.0490   -3.0630    2.9690 c3        1 MOL      0.296391
     98 C32        -0.0540   -2.6570    3.9490 c3        1 MOL      0.140971
     99 C33         2.0850   -1.9760    3.1680 c3        1 MOL     -0.792143
    100 C34         0.0750   -3.0780    5.3740 c3        1 MOL     -0.254561
    101 H42        -0.5010   -4.9360    1.4040 hn        1 MOL      0.295163
    102 H43         0.4360   -2.1210    1.1060 h1        1 MOL      0.036987
    103 H44         1.4700   -4.0520    3.1250 hc        1 MOL     -0.028630
    104 H45        -0.9710   -3.1120    3.5660 hc        1 MOL      0.000114
    105 H46        -0.2970   -1.5970    3.9160 hc        1 MOL      0.000114
    106 H47         2.3130   -1.8480    4.2290 hc        1 MOL      0.175576
    107 H48         3.0140   -2.2170    2.6650 hc        1 MOL      0.175576
    108 H49         1.7370   -0.9980    2.8330 hc        1 MOL      0.175576
    109 H50        -0.3700   -4.0600    5.5250 hc        1 MOL      0.054406
    110 H51         1.1310   -3.0730    5.6410 hc        1 MOL      0.054406
    111 H52        -0.3890   -2.4190    6.1030 hc        1 MOL      0.054406
    112 N10         2.4910   -2.7330   -0.2100 n         1 MOL     -0.235098
    113 C35         3.7010   -3.0330   -1.0160 c3        1 MOL      0.048660
    114 C36         4.9470   -2.8420   -0.1870 c         1 MOL      0.499006
    115 O17         4.9630   -2.2680    0.9030 o         1 MOL     -0.405874
    116 C37         3.7540   -2.3300   -2.3370 c3        1 MOL     -0.030761
    117 C38         2.4600   -2.7070   -3.0900 c3        1 MOL     -0.391830
    118 O18         3.8140   -0.9650   -2.1160 oh        1 MOL     -0.371822
    119 H53         2.0130   -1.8500   -0.2810 hn        1 MOL      0.233247
    120 H54         3.6890   -4.1120   -1.1590 h1        1 MOL      0.063288
    121 H55         4.6440   -2.6560   -2.8750 h1        1 MOL      0.076643
    122 H56         3.1260   -0.4710   -2.5890 ho        1 MOL      0.394939
    123 H57         2.2380   -3.7570   -3.2580 hc        1 MOL      0.123612
    124 H58         1.5880   -2.3200   -2.5590 hc        1 MOL      0.123612
    125 H59         2.4590   -2.2920   -4.1010 hc        1 MOL      0.123612
    126 N11         6.0970   -3.2190   -0.7220 n         1 MOL     -0.420832
    127 C39         7.3810   -2.8370   -0.1040 c3        1 MOL     -0.173658
    128 C40         7.6080   -1.3310   -0.1910 c         1 MOL      0.342981
    129 O19         8.1170   -0.7200    0.7510 o         1 MOL     -0.454956
    130 C41         8.5920   -3.4460   -0.9130 c3        1 MOL      0.487802
    131 C42         9.9040   -3.1800   -0.2070 c3        1 MOL     -0.442030
    132 O20         8.4450   -4.8670   -1.0610 oh        1 MOL     -0.601455
    133 H60         6.0640   -3.7140   -1.5990 hn        1 MOL      0.251881
    134 H61         7.3950   -3.1930    0.9300 h1        1 MOL      0.167068
    135 H62         8.5310   -2.9480   -1.8790 h1        1 MOL     -0.069202
    136 H63         7.5080   -5.0280   -1.2010 ho        1 MOL      0.368214
    137 H64         9.7840   -3.5110    0.8290 hc        1 MOL      0.130578
    138 H65        10.5630   -3.9450   -0.6250 hc        1 MOL      0.130578
    139 H66        10.4290   -2.2380   -0.3380 hc        1 MOL      0.130578
    140 N12         7.1190   -0.7030   -1.2570 n         1 MOL     -0.194581
    141 C43         7.0820    0.7960   -1.5100 c3        1 MOL     -0.151711
    142 C44         6.2710    1.4810   -0.4030 c         1 MOL      0.351675
    143 O21         6.7320    2.4400    0.1970 o         1 MOL     -0.486200
    144 C45         6.4360    1.1390   -2.8760 c3        1 MOL      0.062814
    145 C46         6.5350    2.6870   -3.0850 c3        1 MOL     -0.157012
    146 C47         6.0310    3.0860   -4.4900 c3        1 MOL      0.020409
    147 C48         5.7110    4.5720   -4.7090 c3        1 MOL      0.138650
    148 N13         5.4460    4.7780   -6.1350 n4        1 MOL     -0.356121
    149 H67         6.7350   -1.2860   -1.9770 hn        1 MOL      0.219573
    150 H68         8.1040    1.1740   -1.5320 h1        1 MOL      0.148730
    151 H69         5.4320    0.7310   -2.8960 hc        1 MOL     -0.012933
    152 H70         6.9910    0.7540   -3.7390 hc        1 MOL     -0.012933
    153 H71         7.5910    2.9510   -2.9860 hc        1 MOL      0.069521
    154 H72         5.9190    3.2870   -2.4110 hc        1 MOL      0.069521
    155 H73         5.0590    2.5990   -4.5800 hc        1 MOL      0.022884
    156 H74         6.7600    2.7680   -5.2380 hc        1 MOL      0.022884
    157 H75         6.6300    5.0720   -4.4260 hx        1 MOL      0.054285
    158 H76         4.8870    4.9720   -4.1330 hx        1 MOL      0.054285
    159 H77         4.5130    4.5130   -6.4420 hn        1 MOL      0.290057
    160 H78         5.5550    5.7780   -6.2320 hn        1 MOL      0.290057
    161 H79         6.1400    4.3600   -6.7360 hn        1 MOL      0.290057
    162 N14         5.0280    0.9800   -0.1190 n         1 MOL     -0.042040
    163 C49         4.2230    1.4540    1.0280 c3        1 MOL     -0.160501
    164 C50         4.8970    1.2350    2.4240 c         1 MOL      0.399890
    165 O22         4.7070    2.1030    3.3270 o         1 MOL     -0.563563
    166 C51         2.7820    0.8470    0.9830 c3        1 MOL      0.118931
    167 C52         1.8480    1.5820   -0.0010 c3        1 MOL     -0.051286
    168 C53         0.6020    0.8580   -0.4730 c         1 MOL      0.680783
    169 O23         0.4760   -0.3610   -0.5580 o         1 MOL     -0.744977
    170 O24        -0.3480    1.5480   -0.6670 o         1 MOL     -0.744977
    171 H80         4.6640    0.1870   -0.6200 hn        1 MOL      0.106354
    172 H81         4.0670    2.5290    0.9680 h1        1 MOL      0.083078
    173 H82         2.3650    0.7230    1.9860 hc        1 MOL      0.034481
    174 H83         2.9520   -0.1590    0.6130 hc        1 MOL      0.034481
    175 H84         2.4980    1.7370   -0.8620 hc        1 MOL     -0.023382
    176 H85         1.5730    2.5170    0.4840 hc        1 MOL     -0.023382
    177 N15         5.7880    0.2650    2.6030 n         1 MOL     -0.016869
    178 C54         6.5690    0.2100    3.8560 c3        1 MOL     -0.364269
    179 H86         6.2000    0.9680    4.5470 h1        1 MOL      0.133563
    180 H87         6.4620   -0.7760    4.3080 h1        1 MOL      0.133563
    181 H88         7.6200    0.3990    3.6380 h1        1 MOL      0.133563
    182 H89         5.8350   -0.3700    1.8140 hn        1 MOL      0.123028
    183 Ca1        -1.9300   -0.5210   -1.4000 Ca        1 MOL      1.766764
    184 O25        -1.0320   -1.9920   -3.3190 oh        1 MOL     -0.974761
    185 H90        -1.8410   -2.0360   -3.8210 ho        1 MOL      0.459788
    186 H91        -0.5760   -2.8100   -3.5220 ho        1 MOL      0.459788
@<TRIPOS>BOND
     1    1    2 1   
     2    1    4 1   
     3    1    5 1   
     4    1    6 1   
     5    2    3 2   
     6    2    7 1   
     7    7    8 1   
     8    7   15 1   
     9    8    9 1   
    10    8   11 1   
    11    8   16 1   
    12    9   10 2   
    13    9   19 1   
    14   11   12 1   
    15   11   17 1   
    16   11   18 1   
    17   12   13 1   
    18   12   14 1   
    19   19   20 1   
    20   19   28 1   
    21   20   21 1   
    22   20   23 1   
    23   20   29 1   
    24   21   22 2   
    25   21   41 1   
    26   23   24 1   
    27   23   30 1   
    28   23   31 1   
    29   24   25 1   
    30   24   32 1   
    31   24   33 1   
    32   25   26 1   
    33   25   34 1   
    34   25   35 1   
    35   26   27 1   
    36   26   36 1   
    37   26   37 1   
    38   27   38 1   
    39   27   39 1   
    40   27   40 1   
    41   41   42 1   
    42   41   49 1   
    43   42   43 1   
    44   42   45 1   
    45   42   50 1   
    46   43   44 2   
    47   43   53 1   
    48   45   46 1   
    49   45   51 1   
    50   45   52 1   
    51   46   47 1   
    52   46   48 1   
    53   53   54 1   
    54   53   57 1   
    55   54   55 1   
    56   54   58 1   
    57   54   59 1   
    58   55   56 2   
    59   55   60 1   
    60   60   61 1   
    61   60   68 1   
    62   61   62 1   
    63   61   64 1   
    64   61   69 1   
    65   62   63 2   
    66   62   72 1   
    67   64   65 1   
    68   64   70 1   
    69   64   71 1   
    70   65   66 1   
    71   65   67 1   
    72   72   73 1   
    73   72   76 1   
    74   73   74 1   
    75   73   77 1   
    76   73   78 1   
    77   74   75 2   
    78   74   79 1   
    79   79   80 1   
    80   79   86 1   
    81   80   81 1   
    82   80   83 1   
    83   80   87 1   
    84   81   82 2   
    85   81   93 1   
    86   83   84 1   
    87   83   85 1   
    88   83   88 1   
    89   84   90 1   
    90   84   91 1   
    91   84   92 1   
    92   85   89 1   
    93   93   94 1   
    94   93  101 1   
    95   94   95 1   
    96   94   97 1   
    97   94  102 1   
    98   95   96 2   
    99   95  112 1   
   100   97   98 1   
   101   97   99 1   
   102   97  103 1   
   103   98  100 1   
   104   98  104 1   
   105   98  105 1   
   106   99  106 1   
   107   99  107 1   
   108   99  108 1   
   109  100  109 1   
   110  100  110 1   
   111  100  111 1   
   112  112  113 1   
   113  112  119 1   
   114  113  114 1   
   115  113  116 1   
   116  113  120 1   
   117  114  115 2   
   118  114  126 1   
   119  116  117 1   
   120  116  118 1   
   121  116  121 1   
   122  117  123 1   
   123  117  124 1   
   124  117  125 1   
   125  118  122 1   
   126  126  127 1   
   127  126  133 1   
   128  127  128 1   
   129  127  130 1   
   130  127  134 1   
   131  128  129 2   
   132  128  140 1   
   133  130  131 1   
   134  130  132 1   
   135  130  135 1   
   136  131  137 1   
   137  131  138 1   
   138  131  139 1   
   139  132  136 1   
   140  140  141 1   
   141  140  149 1   
   142  141  142 1   
   143  141  144 1   
   144  141  150 1   
   145  142  143 2   
   146  142  162 1   
   147  144  145 1   
   148  144  151 1   
   149  144  152 1   
   150  145  146 1   
   151  145  153 1   
   152  145  154 1   
   153  146  147 1   
   154  146  155 1   
   155  146  156 1   
   156  147  148 1   
   157  147  157 1   
   158  147  158 1   
   159  148  159 1   
   160  148  160 1   
   161  148  161 1   
   162  162  163 1   
   163  162  171 1   
   164  163  164 1   
   165  163  166 1   
   166  163  172 1   
   167  164  165 2   
   168  164  177 1   
   169  166  167 1   
   170  166  173 1   
   171  166  174 1   
   172  167  168 1   
   173  167  175 1   
   174  167  176 1   
   175  168  169 1   
   176  168  170 1   
   177  177  178 1   
   178  177  182 1   
   179  178  179 1   
   180  178  180 1   
   181  178  181 1   
   182  184  185 1   
   183  184  186 1   
@<TRIPOS>SUBSTRUCTURE
     1 MOL         1 TEMP              0 ****  ****    0 ROOT
