@<TRIPOS>MOLECULE
MOL
  182   178     1     0     0
SMALL
resp


@<TRIPOS>ATOM
      1 C1         -1.4070   -2.5570    6.4580 c3        1 MOL     -0.300990
      2 C2         -1.2000   -2.1170    5.0060 c         1 MOL      0.757169
      3 O1         -2.1740   -1.8250    4.2640 o         1 MOL     -0.616787
      4 H1         -0.4720   -2.4480    7.0070 hc        1 MOL      0.075822
      5 H2         -2.1750   -1.9370    6.9200 hc        1 MOL      0.075822
      6 H3         -1.7210   -3.6010    6.4800 hc        1 MOL      0.075822
      7 N1          0.0870   -2.1230    4.6400 n         1 MOL     -0.606007
      8 C3          0.4750   -2.0380    3.2030 c3        1 MOL      0.006453
      9 C4          0.2390   -3.3400    2.5680 c         1 MOL      0.680159
     10 O2          0.5150   -4.3370    3.2290 o         1 MOL     -0.577723
     11 C5          1.9300   -1.5870    3.1660 c3        1 MOL     -0.044383
     12 C6          2.5530   -1.2970    1.7870 c         1 MOL      0.710217
     13 O3          3.5200   -0.4930    1.8260 o         1 MOL     -0.713658
     14 O4          1.9920   -1.5720    0.7180 o         1 MOL     -0.713658
     15 H4          0.7870   -2.4090    5.3130 hn        1 MOL      0.339024
     16 H5         -0.1310   -1.3020    2.6840 h1        1 MOL      0.052758
     17 H6          2.5790   -2.3380    3.6120 hc        1 MOL      0.020983
     18 H7          2.0730   -0.6820    3.7630 hc        1 MOL      0.020983
     19 N2         -0.2820   -3.4510    1.3230 n         1 MOL     -0.439560
     20 C7         -0.6670   -4.6980    0.6430 c3        1 MOL     -0.073089
     21 C8          0.5150   -5.3850    0.0130 c         1 MOL      0.487208
     22 O5          0.5130   -6.6390   -0.0380 o         1 MOL     -0.585294
     23 C9         -1.7650   -4.4350   -0.3810 c3        1 MOL      0.073618
     24 C10        -2.1940   -5.7720   -1.0670 c3        1 MOL      0.019371
     25 C11        -3.5280   -5.6570   -1.8380 c3        1 MOL     -0.217550
     26 C12        -3.4650   -4.7300   -3.0560 c3        1 MOL      0.093096
     27 N3         -4.7490   -4.5010   -3.7880 n4        1 MOL     -0.414815
     28 H8         -0.4190   -2.5700    0.8510 hn        1 MOL      0.206675
     29 H9         -1.0740   -5.3580    1.4030 h1        1 MOL      0.125120
     30 H10        -1.4060   -3.8470   -1.2250 hc        1 MOL      0.041638
     31 H11        -2.6970   -4.0560    0.0510 hc        1 MOL      0.041638
     32 H12        -2.2940   -6.4850   -0.2440 hc        1 MOL      0.031803
     33 H13        -1.4140   -6.0960   -1.7480 hc        1 MOL      0.031803
     34 H14        -4.3210   -5.2750   -1.1950 hc        1 MOL      0.082840
     35 H15        -3.7150   -6.6820   -2.1460 hc        1 MOL      0.082840
     36 H16        -2.6740   -5.0470   -3.7410 hx        1 MOL      0.072844
     37 H17        -2.9730   -3.7910   -2.7910 hx        1 MOL      0.072844
     38 H18        -4.6130   -3.9470   -4.6230 hn        1 MOL      0.340288
     39 H19        -5.1530   -5.3900   -4.0580 hn        1 MOL      0.340288
     40 H20        -5.5050   -4.1170   -3.2320 hn        1 MOL      0.340288
     41 N4          1.4960   -4.6210   -0.4150 n         1 MOL     -0.268031
     42 C13         2.6630   -5.2030   -1.1370 c3        1 MOL      0.031737
     43 C14         3.9620   -4.8660   -0.4640 c         1 MOL      0.435055
     44 O6          5.0140   -5.1560   -0.9920 o         1 MOL     -0.511232
     45 C15         2.6540   -4.8320   -2.6410 c3        1 MOL     -0.341016
     46 C16         2.3490   -3.4170   -2.9440 c         1 MOL      0.894729
     47 O7          1.9210   -3.0720   -4.0560 o         1 MOL     -0.773704
     48 O8          2.4880   -2.5630   -2.0490 o         1 MOL     -0.773704
     49 H21         1.3010   -3.6380   -0.2980 hn        1 MOL      0.233862
     50 H22         2.6040   -6.2910   -1.1070 h1        1 MOL      0.120098
     51 H23         1.8290   -5.3600   -3.1190 hc        1 MOL      0.090046
     52 H24         3.6180   -5.1060   -3.0540 hc        1 MOL      0.090046
     53 N5          3.8980   -4.1830    0.7180 n         1 MOL     -0.217843
     54 C17         5.0320   -3.7470    1.5450 c3        1 MOL     -0.276712
     55 C18         6.0170   -2.7740    0.8600 c         1 MOL      0.477220
     56 O9          7.1890   -2.5940    1.2780 o         1 MOL     -0.547469
     57 H25         2.9610   -3.9850    1.0110 hn        1 MOL      0.149773
     58 H26         5.5240   -4.6790    1.8070 h1        1 MOL      0.141298
     59 H27         4.6230   -3.1900    2.3800 h1        1 MOL      0.141298
     60 N6          5.5260   -2.1280   -0.1630 n         1 MOL     -0.188004
     61 C19         6.3360   -1.2060   -1.0200 c3        1 MOL     -0.141332
     62 C20         6.7670    0.1460   -0.3550 c         1 MOL      0.487155
     63 O10         7.8210    0.6710   -0.7170 o         1 MOL     -0.555313
     64 C21         5.6770   -1.0310   -2.4180 c3        1 MOL     -0.069451
     65 C22         4.6090    0.0900   -2.4380 c         1 MOL      0.507210
     66 N7          4.8360    1.1000   -3.1920 n         1 MOL     -0.694479
     67 O11         3.7700    0.1860   -1.5130 o         1 MOL     -0.609633
     68 H28         4.5930   -2.3550   -0.4590 hn        1 MOL      0.318724
     69 H29         7.2440   -1.7870   -1.1410 h1        1 MOL      0.136517
     70 H30         5.2040   -1.9650   -2.6930 hc        1 MOL      0.056130
     71 H31         6.3540   -0.7210   -3.2170 hc        1 MOL      0.056130
     72 H32         5.5300    1.1070   -3.9230 hn        1 MOL      0.365569
     73 H33         4.3250    1.9500   -2.9810 hn        1 MOL      0.365569
     74 N8          6.0860    0.6610    0.6820 n         1 MOL     -0.097291
     75 C23         6.4310    1.7840    1.5570 c3        1 MOL     -0.196535
     76 C24         5.2550    2.7220    1.7830 c         1 MOL      0.540068
     77 O12         5.5240    3.8250    2.2840 o         1 MOL     -0.540839
     78 H34         5.1910    0.2210    0.7820 hn        1 MOL      0.122921
     79 H35         7.1690    2.3970    1.0400 h1        1 MOL      0.126056
     80 H36         6.9220    1.4630    2.4740 h1        1 MOL      0.126056
     81 N9          4.0550    2.4400    1.2160 n         1 MOL     -0.393272
     82 C25         2.9430    3.3460    0.9360 c3        1 MOL      0.030915
     83 C26         1.6510    2.5960    1.0270 c         1 MOL      0.746039
     84 O13         1.5390    1.6040    0.3020 o         1 MOL     -0.699261
     85 C27         3.0610    3.9410   -0.4720 c3        1 MOL     -0.118055
     86 C28         4.2230    4.8980   -0.6730 ca        1 MOL      0.231519
     87 C29         5.3500    4.4460   -1.4450 ca        1 MOL     -0.361632
     88 C30         4.1220    6.1900   -0.2670 ca        1 MOL     -0.361632
     89 C31         6.4340    5.3190   -1.6650 ca        1 MOL     -0.061690
     90 C32         5.1660    7.0520   -0.3510 ca        1 MOL     -0.061690
     91 C33         6.3230    6.6050   -1.1020 ca        1 MOL      0.185800
     92 O14         7.3930    7.3630   -1.2800 oh        1 MOL     -0.477398
     93 H37         3.9230    1.4930    0.9000 hn        1 MOL      0.261903
     94 H38         2.9320    4.1900    1.6250 h1        1 MOL      0.066698
     95 H39         2.2090    4.5500   -0.7580 hc        1 MOL      0.049825
     96 H40         3.1880    3.1570   -1.2170 hc        1 MOL      0.049825
     97 H41         5.3900    3.4510   -1.8560 ha        1 MOL      0.164558
     98 H42         3.2300    6.4450    0.2960 ha        1 MOL      0.164558
     99 H43         7.2870    5.0100   -2.2570 ha        1 MOL      0.112120
    100 H44         5.2100    8.0560    0.0490 ha        1 MOL      0.112120
    101 H45         7.4000    8.2390   -0.8820 ho        1 MOL      0.381714
    102 N10         0.6390    3.1330    1.7310 n         1 MOL     -0.523547
    103 C34        -0.7480    2.7480    1.6300 c3        1 MOL      0.041310
    104 C35        -1.5500    3.6620    0.6420 c         1 MOL      0.291134
    105 O15        -1.4640    4.8900    0.7440 o         1 MOL     -0.526171
    106 C36        -1.2980    2.8430    3.0920 c3        1 MOL      0.183523
    107 C37        -0.8640    1.5970    3.8490 c3        1 MOL     -0.030131
    108 C38        -2.8130    3.1010    3.1380 c3        1 MOL     -0.260755
    109 C39         0.3010    1.7510    4.7200 c3        1 MOL      0.063715
    110 H46         0.7610    3.9530    2.2990 hn        1 MOL      0.281730
    111 H47        -0.8080    1.7090    1.3240 h1        1 MOL      0.104869
    112 H48        -0.8650    3.6670    3.6580 hc        1 MOL      0.013982
    113 H49        -0.7020    0.8060    3.1160 hc        1 MOL      0.025709
    114 H50        -1.6520    1.3450    4.5670 hc        1 MOL      0.025709
    115 H51        -3.1370    4.1070    2.8470 hc        1 MOL      0.053577
    116 H52        -3.2150    2.3090    2.5170 hc        1 MOL      0.053577
    117 H53        -3.1350    2.8640    4.1480 hc        1 MOL      0.053577
    118 H54         1.1920    1.9530    4.1180 hc        1 MOL     -0.028214
    119 H55         0.2730    2.5310    5.4780 hc        1 MOL     -0.028214
    120 H56         0.4060    0.7980    5.2280 hc        1 MOL     -0.028214
    121 N11        -2.4420    3.1050   -0.1290 n         1 MOL      0.068670
    122 C40        -3.3670    3.8030   -1.0440 c3        1 MOL     -0.056321
    123 C41        -4.8140    3.4720   -0.5400 c         1 MOL      0.444452
    124 O16        -5.0270    2.6890    0.3820 o         1 MOL     -0.389870
    125 C42        -3.2010    3.4520   -2.5860 c3        1 MOL     -0.032397
    126 O17        -3.3620    2.0420   -2.6670 oh        1 MOL     -0.567845
    127 H57        -2.3250    2.1180   -0.3270 hn        1 MOL      0.056815
    128 H58        -3.1440    4.8700   -0.9560 h1        1 MOL      0.057925
    129 H59        -2.2090    3.6970   -2.9730 h1        1 MOL      0.086777
    130 H60        -4.0130    3.9400   -3.1260 h1        1 MOL      0.086777
    131 H61        -2.6790    1.5360   -2.2350 ho        1 MOL      0.342029
    132 N12        -5.8160    4.1840   -1.0910 n         1 MOL     -0.431919
    133 C43        -7.2880    3.9410   -0.8370 c3        1 MOL      0.070012
    134 C44        -7.7350    2.4490   -0.9200 c         1 MOL      0.422952
    135 O18        -8.5910    1.8600   -0.2130 o         1 MOL     -0.477792
    136 C45        -8.2040    4.7700   -1.7560 c3        1 MOL     -0.111775
    137 H62        -5.5990    4.9750   -1.6920 hn        1 MOL      0.300258
    138 H63        -7.5350    4.3840    0.1340 h1        1 MOL      0.087938
    139 H64        -8.2700    4.3570   -2.7710 hc        1 MOL      0.047904
    140 H65        -9.2040    4.9190   -1.3580 hc        1 MOL      0.047904
    141 H66        -7.7580    5.7340   -1.9770 hc        1 MOL      0.047904
    142 N13        -7.2090    1.8270   -2.0160 n         1 MOL     -0.360371
    143 C46        -7.5100    0.3650   -2.2400 c3        1 MOL      0.032758
    144 C47        -6.9490   -0.5530   -1.1420 c         1 MOL      0.312402
    145 O19        -7.3290   -1.7380   -0.9200 o         1 MOL     -0.548240
    146 C48        -7.0900    0.0370   -3.6990 c3        1 MOL     -0.226208
    147 H67        -6.6650    2.3390   -2.6930 hn        1 MOL      0.299850
    148 H68        -8.5880    0.2270   -2.2200 h1        1 MOL      0.125916
    149 H69        -7.5240    0.7990   -4.3400 hc        1 MOL      0.066802
    150 H70        -6.0020   -0.0170   -3.7330 hc        1 MOL      0.066802
    151 H71        -7.4830   -0.9110   -4.0830 hc        1 MOL      0.066802
    152 N14        -6.0700   -0.0240   -0.3120 n         1 MOL      0.046860
    153 C49        -5.4260   -0.8220    0.7810 c3        1 MOL     -0.069238
    154 C50        -6.1580   -0.5240    2.0500 c         1 MOL      0.445459
    155 O20        -6.3290   -1.4820    2.8070 o         1 MOL     -0.537854
    156 C51        -3.9570   -0.3650    0.8940 c3        1 MOL      0.236149
    157 C52        -3.1860   -0.9550   -0.2510 c3        1 MOL      0.255153
    158 C53        -1.8630   -0.3450   -0.4330 c         1 MOL      0.552565
    159 O21        -0.8480   -0.9620   -0.0350 o         1 MOL     -0.664927
    160 O22        -1.7140    0.6470   -1.1970 o         1 MOL     -0.664927
    161 H72        -5.7770    0.9130   -0.5530 hn        1 MOL     -0.000030
    162 H73        -5.5230   -1.8900    0.5880 h1        1 MOL      0.086731
    163 H74        -3.3930   -0.6970    1.7590 hc        1 MOL     -0.078398
    164 H75        -4.0390    0.7220    0.9660 hc        1 MOL     -0.078398
    165 H76        -3.7260   -0.9410   -1.2010 hc        1 MOL     -0.113521
    166 H77        -3.1020   -2.0290   -0.1250 hc        1 MOL     -0.113521
    167 N15        -6.7920    0.6220    2.2440 n         1 MOL     -0.097995
    168 C54        -7.6300    0.9020    3.3520 c3        1 MOL     -0.330637
    169 H78        -7.0180    1.0350    4.2440 h1        1 MOL      0.125241
    170 H79        -8.1940    1.8150    3.1590 h1        1 MOL      0.125241
    171 H80        -8.3200    0.0730    3.5050 h1        1 MOL      0.125241
    172 H81        -6.5590    1.3420    1.5720 hn        1 MOL      0.141642
    173 Ca1         1.2520   -0.3560   -1.2880 Ca        1 MOL      1.782293
    174 O23         1.7940   -0.2590   -4.1020 oh        1 MOL     -0.827282
    175 H82         1.7800   -1.1870   -4.3410 ho        1 MOL      0.395850
    176 H83         2.4390    0.1230   -4.7020 ho        1 MOL      0.395850
    177 O24         0.5770    1.9000   -2.6310 oh        1 MOL     -0.827282
    178 H84        -0.3600    1.6750   -2.6660 ho        1 MOL      0.395850
    179 H85         0.5880    2.8480   -2.7380 ho        1 MOL      0.395850
    180 O25        -0.5510   -1.5870   -2.8770 oh        1 MOL     -0.827282
    181 H86        -0.4270   -2.1410   -3.6460 ho        1 MOL      0.395850
    182 H87        -1.2050   -0.9400   -3.1410 ho        1 MOL      0.395850
@<TRIPOS>BOND
     1    1    2 1   
     2    1    4 1   
     3    1    5 1   
     4    1    6 1   
     5    2    3 2   
     6    2    7 1   
     7    7    8 1   
     8    7   15 1   
     9    8    9 1   
    10    8   11 1   
    11    8   16 1   
    12    9   10 2   
    13    9   19 1   
    14   11   12 1   
    15   11   17 1   
    16   11   18 1   
    17   12   13 1   
    18   12   14 1   
    19   19   20 1   
    20   19   28 1   
    21   20   21 1   
    22   20   23 1   
    23   20   29 1   
    24   21   22 2   
    25   21   41 1   
    26   23   24 1   
    27   23   30 1   
    28   23   31 1   
    29   24   25 1   
    30   24   32 1   
    31   24   33 1   
    32   25   26 1   
    33   25   34 1   
    34   25   35 1   
    35   26   27 1   
    36   26   36 1   
    37   26   37 1   
    38   27   38 1   
    39   27   39 1   
    40   27   40 1   
    41   41   42 1   
    42   41   49 1   
    43   42   43 1   
    44   42   45 1   
    45   42   50 1   
    46   43   44 2   
    47   43   53 1   
    48   45   46 1   
    49   45   51 1   
    50   45   52 1   
    51   46   47 1   
    52   46   48 1   
    53   53   54 1   
    54   53   57 1   
    55   54   55 1   
    56   54   58 1   
    57   54   59 1   
    58   55   56 2   
    59   55   60 1   
    60   60   61 1   
    61   60   68 1   
    62   61   62 1   
    63   61   64 1   
    64   61   69 1   
    65   62   63 2   
    66   62   74 1   
    67   64   65 1   
    68   64   70 1   
    69   64   71 1   
    70   65   66 1   
    71   65   67 2   
    72   66   72 1   
    73   66   73 1   
    74   74   75 1   
    75   74   78 1   
    76   75   76 1   
    77   75   79 1   
    78   75   80 1   
    79   76   77 2   
    80   76   81 1   
    81   81   82 1   
    82   81   93 1   
    83   82   83 1   
    84   82   85 1   
    85   82   94 1   
    86   83   84 2   
    87   83  102 1   
    88   85   86 1   
    89   85   95 1   
    90   85   96 1   
    91   86   87 ar  
    92   86   88 ar  
    93   87   89 ar  
    94   87   97 1   
    95   88   90 ar  
    96   88   98 1   
    97   89   91 ar  
    98   89   99 1   
    99   90   91 ar  
   100   90  100 1   
   101   91   92 1   
   102   92  101 1   
   103  102  103 1   
   104  102  110 1   
   105  103  104 1   
   106  103  106 1   
   107  103  111 1   
   108  104  105 2   
   109  104  121 1   
   110  106  107 1   
   111  106  108 1   
   112  106  112 1   
   113  107  109 1   
   114  107  113 1   
   115  107  114 1   
   116  108  115 1   
   117  108  116 1   
   118  108  117 1   
   119  109  118 1   
   120  109  119 1   
   121  109  120 1   
   122  121  122 1   
   123  121  127 1   
   124  122  123 1   
   125  122  125 1   
   126  122  128 1   
   127  123  124 2   
   128  123  132 1   
   129  125  126 1   
   130  125  129 1   
   131  125  130 1   
   132  126  131 1   
   133  132  133 1   
   134  132  137 1   
   135  133  134 1   
   136  133  136 1   
   137  133  138 1   
   138  134  135 2   
   139  134  142 1   
   140  136  139 1   
   141  136  140 1   
   142  136  141 1   
   143  142  143 1   
   144  142  147 1   
   145  143  144 1   
   146  143  146 1   
   147  143  148 1   
   148  144  145 2   
   149  144  152 1   
   150  146  149 1   
   151  146  150 1   
   152  146  151 1   
   153  152  153 1   
   154  152  161 1   
   155  153  154 1   
   156  153  156 1   
   157  153  162 1   
   158  154  155 2   
   159  154  167 1   
   160  156  157 1   
   161  156  163 1   
   162  156  164 1   
   163  157  158 1   
   164  157  165 1   
   165  157  166 1   
   166  158  159 1   
   167  158  160 1   
   168  167  168 1   
   169  167  172 1   
   170  168  169 1   
   171  168  170 1   
   172  168  171 1   
   173  174  175 1   
   174  174  176 1   
   175  177  178 1   
   176  177  179 1   
   177  180  181 1   
   178  180  182 1   
@<TRIPOS>SUBSTRUCTURE
     1 MOL         1 TEMP              0 ****  ****    0 ROOT
