@<TRIPOS>MOLECULE
MOL
  179   176     1     0     0
SMALL
resp


@<TRIPOS>ATOM
      1 C1         -0.2410    5.0150   -4.2040 c3        1 MOL     -0.495515
      2 C2          0.3220    4.2990   -3.0030 c         1 MOL      0.676459
      3 O1         -0.1040    4.4630   -1.8330 o         1 MOL     -0.569092
      4 H1         -1.2320    4.6220   -4.4290 hc        1 MOL      0.133752
      5 H2         -0.3140    6.0810   -3.9900 hc        1 MOL      0.133752
      6 H3          0.4140    4.8590   -5.0610 hc        1 MOL      0.133752
      7 N1          1.2740    3.3740   -3.1760 n         1 MOL     -0.544130
      8 C3          1.9760    2.6080   -2.0770 c3        1 MOL      0.182657
      9 C4          2.9290    3.5930   -1.3200 c         1 MOL      0.335587
     10 O2          4.1750    3.6140   -1.3670 o         1 MOL     -0.452366
     11 C5          2.7270    1.2460   -2.4080 c3        1 MOL     -0.088232
     12 C6          3.1260    0.4820   -1.1970 c         1 MOL      0.671967
     13 O3          2.7160    0.8220   -0.0660 o         1 MOL     -0.691359
     14 O4          3.8370   -0.5470   -1.3970 o         1 MOL     -0.691359
     15 H4          1.4460    3.2980   -4.1770 hn        1 MOL      0.296766
     16 H5          1.2030    2.4120   -1.3330 h1        1 MOL      0.053629
     17 H6          3.5880    1.4950   -3.0240 hc        1 MOL      0.034827
     18 H7          2.0360    0.6370   -2.9990 hc        1 MOL      0.034827
     19 N2          2.4360    4.6440   -0.6700 n         1 MOL     -0.278613
     20 C7          3.2770    5.7170   -0.1060 c3        1 MOL     -0.014820
     21 C8          4.1870    5.1060    0.9940 c         1 MOL      0.542721
     22 O5          5.3030    5.5310    1.1570 o         1 MOL     -0.553116
     23 C9          2.3260    6.8570    0.4760 c3        1 MOL     -0.281655
     24 C10         1.6110    7.6320   -0.6380 c3        1 MOL      0.158762
     25 C11         2.5060    8.4590   -1.4590 c3        1 MOL     -0.216393
     26 C12         1.6150    9.4980   -2.1010 c3        1 MOL      0.078377
     27 N3          2.4220   10.5210   -2.8300 n4        1 MOL     -0.295134
     28 H8          1.4340    4.7050   -0.5670 hn        1 MOL      0.296080
     29 H9          3.9660    6.0450   -0.8920 h1        1 MOL      0.080749
     30 H10         3.0320    7.5460    0.9390 hc        1 MOL      0.108120
     31 H11         1.6000    6.4210    1.1680 hc        1 MOL      0.108120
     32 H12         0.9400    8.3150   -0.1340 hc        1 MOL      0.000073
     33 H13         0.9710    6.9730   -1.2200 hc        1 MOL      0.000073
     34 H14         3.0110    7.8730   -2.2290 hc        1 MOL      0.079011
     35 H15         3.2740    8.8960   -0.8050 hc        1 MOL      0.079011
     36 H16         1.0120   10.1250   -1.4380 hx        1 MOL      0.078240
     37 H17         0.9650    8.8830   -2.7130 hx        1 MOL      0.078240
     38 H18         3.1630   10.8230   -2.2130 hn        1 MOL      0.309101
     39 H19         2.9840   10.0790   -3.5510 hn        1 MOL      0.309101
     40 H20         1.8680   11.3190   -3.1170 hn        1 MOL      0.309101
     41 N4          3.8310    3.9940    1.6860 n         1 MOL     -0.375184
     42 C13         4.8080    3.2860    2.6710 c3        1 MOL     -0.029134
     43 C14         5.6970    2.3350    1.9340 c         1 MOL      0.503852
     44 O6          6.6330    1.8520    2.5070 o         1 MOL     -0.566533
     45 C15         3.9000    2.5600    3.7310 c3        1 MOL     -0.257385
     46 C16         2.9350    1.5460    3.1010 c         1 MOL      0.757521
     47 O7          3.3340    0.3580    2.9270 o         1 MOL     -0.712054
     48 O8          1.7330    1.8040    3.0350 o         1 MOL     -0.712054
     49 H21         2.9770    3.5110    1.4680 hn        1 MOL      0.206526
     50 H22         5.5300    4.0010    3.0640 h1        1 MOL      0.128752
     51 H23         3.3810    3.2900    4.3460 hc        1 MOL      0.086242
     52 H24         4.4510    1.9090    4.4020 hc        1 MOL      0.086242
     53 N5          5.5060    1.9780    0.6720 n         1 MOL      0.022718
     54 C17         6.5030    1.2710   -0.1180 c3        1 MOL     -0.151558
     55 C18         6.7900   -0.1920    0.2920 c         1 MOL      0.492863
     56 O9          7.8770   -0.6940    0.0070 o         1 MOL     -0.568702
     57 H25         4.7070    2.2910    0.1320 hn        1 MOL     -0.019603
     58 H26         7.4860    1.7540   -0.1430 h1        1 MOL      0.091345
     59 H27         6.1210    1.2650   -1.1380 h1        1 MOL      0.091345
     60 N6          5.8590   -0.8040    1.0820 n         1 MOL     -0.041466
     61 C19         6.0020   -2.1150    1.6560 c3        1 MOL     -0.025215
     62 C20         5.6790   -3.2790    0.6840 c         1 MOL      0.376548
     63 O10         5.8800   -4.4100    1.0630 o         1 MOL     -0.494209
     64 C21         5.1890   -2.1920    3.0100 c3        1 MOL     -0.287401
     65 C22         3.8780   -2.8350    2.8330 c         1 MOL      0.569415
     66 N7          3.5470   -3.8490    3.5460 n         1 MOL     -0.687247
     67 O11         3.0040   -2.4450    2.0160 o         1 MOL     -0.580306
     68 H28         5.0850   -0.2110    1.3330 hn        1 MOL      0.001228
     69 H29         7.0400   -2.2760    1.9440 h1        1 MOL      0.113246
     70 H30         5.1950   -1.1520    3.3290 hc        1 MOL      0.120830
     71 H31         5.6820   -2.8280    3.7380 hc        1 MOL      0.120830
     72 H32         4.2360   -4.3280    4.1130 hn        1 MOL      0.350963
     73 H33         2.7050   -4.3760    3.3740 hn        1 MOL      0.350963
     74 N8          5.1900   -2.9930   -0.5560 n         1 MOL     -0.214321
     75 C23         5.0690   -3.9260   -1.7570 c3        1 MOL     -0.128561
     76 C24         3.6420   -4.1660   -2.2440 c         1 MOL      0.588871
     77 O12         3.4900   -4.8560   -3.2370 o         1 MOL     -0.573219
     78 H34         4.7240   -2.1040   -0.6990 hn        1 MOL      0.199855
     79 H35         5.5320   -4.8760   -1.4760 h1        1 MOL      0.104547
     80 H36         5.6590   -3.5920   -2.6190 h1        1 MOL      0.104547
     81 N9          2.6260   -3.6140   -1.5860 n         1 MOL     -0.362075
     82 C25         1.1710   -3.9190   -1.6710 c3        1 MOL      0.093690
     83 C26         0.2020   -2.7010   -1.3410 c         1 MOL      0.504208
     84 O13         0.5850   -1.7600   -0.6730 o         1 MOL     -0.576816
     85 C27         0.8300   -5.0300   -0.6820 c3        1 MOL     -0.042822
     86 C28         1.6340   -6.3160   -0.9900 ca        1 MOL      0.217773
     87 C29         2.7610   -6.6790   -0.2820 ca        1 MOL     -0.386612
     88 C30         1.0200   -7.1720   -1.9350 ca        1 MOL     -0.386612
     89 C31         3.5160   -7.8420   -0.6850 ca        1 MOL     -0.039243
     90 C32         1.7350   -8.3750   -2.2520 ca        1 MOL     -0.039243
     91 C33         2.9360   -8.6980   -1.6070 ca        1 MOL      0.161617
     92 O14         3.6220   -9.8060   -2.0280 oh        1 MOL     -0.468721
     93 H37         3.0000   -3.1370   -0.7820 hn        1 MOL      0.222132
     94 H38         0.9230   -4.3510   -2.6430 h1        1 MOL      0.071722
     95 H39        -0.2380   -5.2300   -0.7400 hc        1 MOL      0.009191
     96 H40         0.9530   -4.7250    0.3650 hc        1 MOL      0.009191
     97 H41         3.1780   -6.0960    0.5340 ha        1 MOL      0.185830
     98 H42         0.0130   -7.0110   -2.2880 ha        1 MOL      0.185830
     99 H43         4.4760   -8.0240   -0.2220 ha        1 MOL      0.103901
    100 H44         1.2600   -9.0490   -2.9480 ha        1 MOL      0.103901
    101 H45         3.2740  -10.0870   -2.8800 ho        1 MOL      0.352338
    102 N10        -1.1060   -2.7800   -1.7100 n         1 MOL     -0.563563
    103 C34        -2.1690   -1.7060   -1.3970 c3        1 MOL     -0.065890
    104 C35        -3.4610   -2.4660   -1.1790 c         1 MOL      0.668381
    105 O15        -3.8870   -3.1390   -2.1140 o         1 MOL     -0.571104
    106 C36        -2.3320   -0.7140   -2.6020 c3        1 MOL      0.040638
    107 C37        -0.9700   -0.1730   -3.1430 c3        1 MOL      0.106169
    108 C38        -3.2510    0.4350   -2.1490 c3        1 MOL     -0.348926
    109 C39        -1.1650    0.4150   -4.5810 c3        1 MOL     -0.137878
    110 H46        -1.3670   -3.5500   -2.3080 hn        1 MOL      0.320713
    111 H47        -1.9460   -1.0780   -0.5330 h1        1 MOL      0.107108
    112 H48        -2.7580   -1.2530   -3.4480 hc        1 MOL      0.039821
    113 H49        -0.2520   -0.9820   -3.2700 hc        1 MOL      0.035861
    114 H50        -0.6360    0.5930   -2.4420 hc        1 MOL      0.035861
    115 H51        -4.1070    0.1700   -1.5280 hc        1 MOL      0.087717
    116 H52        -2.6660    1.2510   -1.7270 hc        1 MOL      0.087717
    117 H53        -3.6290    0.8490   -3.0860 hc        1 MOL      0.087717
    118 H54        -0.2440    0.7320   -5.0760 hc        1 MOL      0.020364
    119 H55        -1.5090   -0.3960   -5.2380 hc        1 MOL      0.020364
    120 H56        -1.9200    1.1930   -4.6750 hc        1 MOL      0.020364
    121 N11        -4.0380   -2.3470   -0.0010 n         1 MOL     -0.534718
    122 C40        -5.4100   -2.8500    0.2760 c3        1 MOL      0.045653
    123 C41        -6.5190   -2.0340   -0.4290 c         1 MOL      0.436427
    124 O16        -6.3230   -0.8500   -0.7570 o         1 MOL     -0.342624
    125 C42        -5.4870   -2.9750    1.8010 c3        1 MOL     -0.152102
    126 O17        -5.7570   -1.7690    2.4210 oh        1 MOL     -0.417773
    127 H57        -3.4860   -1.8520    0.6800 hn        1 MOL      0.406217
    128 H58        -5.4430   -3.8960   -0.0390 h1        1 MOL      0.080153
    129 H59        -4.5860   -3.4260    2.2030 h1        1 MOL      0.101812
    130 H60        -6.3200   -3.6550    2.0040 h1        1 MOL      0.101812
    131 H61        -5.7970   -1.8470    3.3790 ho        1 MOL      0.387992
    132 N12        -7.7780   -2.4930   -0.5280 n         1 MOL     -0.485036
    133 C43        -8.8330   -1.5870   -1.0410 c3        1 MOL      0.184213
    134 C44        -9.0890   -0.3090   -0.1560 c         1 MOL      0.416783
    135 O18        -9.4240    0.7700   -0.6370 o         1 MOL     -0.480621
    136 C45       -10.2010   -2.2980   -1.2510 c3        1 MOL     -0.279093
    137 H62        -7.9460   -3.4230   -0.1560 hn        1 MOL      0.303748
    138 H63        -8.5590   -1.2180   -2.0310 h1        1 MOL      0.070671
    139 H64       -10.5490   -2.6250   -0.2780 hc        1 MOL      0.082843
    140 H65       -10.9110   -1.5950   -1.6870 hc        1 MOL      0.082843
    141 H66       -10.1210   -3.1580   -1.9180 hc        1 MOL      0.082843
    142 N13        -8.7660   -0.4620    1.1880 n         1 MOL     -0.339781
    143 C46        -8.8110    0.5710    2.2410 c3        1 MOL      0.077242
    144 C47        -7.7110    1.6230    2.1910 c         1 MOL      0.381958
    145 O19        -7.9970    2.8190    2.1610 o         1 MOL     -0.538562
    146 C48        -8.9090   -0.0120    3.6290 c3        1 MOL     -0.217665
    147 H67        -8.5570   -1.3570    1.5980 hn        1 MOL      0.243450
    148 H68        -9.7890    1.0270    2.0480 h1        1 MOL      0.086807
    149 H69        -7.9970   -0.4350    4.0450 hc        1 MOL      0.058526
    150 H70        -9.2240    0.8310    4.2530 hc        1 MOL      0.058526
    151 H71        -9.6530   -0.8070    3.6600 hc        1 MOL      0.058526
    152 N14        -6.5510    1.1940    1.9530 n         1 MOL     -0.095808
    153 C49        -5.4010    2.0890    1.6290 c3        1 MOL     -0.066805
    154 C50        -5.5410    2.7820    0.2940 c         1 MOL      0.504515
    155 O20        -5.2740    3.9170    0.2190 o         1 MOL     -0.576845
    156 C51        -4.1610    1.1430    1.6480 c3        1 MOL      0.084450
    157 C52        -2.7730    1.7800    1.3570 c3        1 MOL     -0.337811
    158 C53        -1.6350    0.7410    1.4930 c         1 MOL      0.947396
    159 O21        -0.5330    1.0670    1.0980 o         1 MOL     -0.799908
    160 O22        -1.8820   -0.4300    1.8840 o         1 MOL     -0.799908
    161 H72        -6.3400    0.2020    2.0320 hn        1 MOL      0.039902
    162 H73        -5.2790    2.8160    2.4430 h1        1 MOL      0.082624
    163 H74        -4.3480    0.3870    0.8820 hc        1 MOL     -0.005962
    164 H75        -4.0970    0.7080    2.6580 hc        1 MOL     -0.005962
    165 H76        -2.5760    2.5460    2.1090 hc        1 MOL      0.079200
    166 H77        -2.6840    2.2630    0.3870 hc        1 MOL      0.079200
    167 N15        -6.1630    2.1800   -0.6460 n         1 MOL      0.015617
    168 C54        -6.4530    2.8400   -1.9210 c3        1 MOL     -0.279525
    169 H78        -7.2090    2.2700   -2.4610 h1        1 MOL      0.101509
    170 H79        -6.8250    3.8470   -1.7320 h1        1 MOL      0.101509
    171 H80        -5.5430    2.8940   -2.5190 h1        1 MOL      0.101509
    172 H81        -6.3900    1.1970   -0.5550 hn        1 MOL      0.064458
    173 Ca1         1.2690   -0.4720    1.6550 Ca        1 MOL      1.729312
    174 O23         0.5840   -0.7180    4.1370 oh        1 MOL     -0.768454
    175 H82         1.0850   -1.3710    4.6300 ho        1 MOL      0.381597
    176 H83         0.7340    0.1030    4.6140 ho        1 MOL      0.381597
    177 O24        -0.0710   -2.8160    2.0930 oh        1 MOL     -0.768454
    178 H84         0.2950   -3.6670    2.3420 ho        1 MOL      0.381597
    179 H85        -0.9800   -3.0100    1.8750 ho        1 MOL      0.381597
@<TRIPOS>BOND
     1    1    2 1   
     2    1    4 1   
     3    1    5 1   
     4    1    6 1   
     5    2    3 2   
     6    2    7 1   
     7    7    8 1   
     8    7   15 1   
     9    8    9 1   
    10    8   11 1   
    11    8   16 1   
    12    9   10 2   
    13    9   19 1   
    14   11   12 1   
    15   11   17 1   
    16   11   18 1   
    17   12   13 1   
    18   12   14 1   
    19   19   20 1   
    20   19   28 1   
    21   20   21 1   
    22   20   23 1   
    23   20   29 1   
    24   21   22 2   
    25   21   41 1   
    26   23   24 1   
    27   23   30 1   
    28   23   31 1   
    29   24   25 1   
    30   24   32 1   
    31   24   33 1   
    32   25   26 1   
    33   25   34 1   
    34   25   35 1   
    35   26   27 1   
    36   26   36 1   
    37   26   37 1   
    38   27   38 1   
    39   27   39 1   
    40   27   40 1   
    41   41   42 1   
    42   41   49 1   
    43   42   43 1   
    44   42   45 1   
    45   42   50 1   
    46   43   44 2   
    47   43   53 1   
    48   45   46 1   
    49   45   51 1   
    50   45   52 1   
    51   46   47 1   
    52   46   48 1   
    53   53   54 1   
    54   53   57 1   
    55   54   55 1   
    56   54   58 1   
    57   54   59 1   
    58   55   56 2   
    59   55   60 1   
    60   60   61 1   
    61   60   68 1   
    62   61   62 1   
    63   61   64 1   
    64   61   69 1   
    65   62   63 2   
    66   62   74 1   
    67   64   65 1   
    68   64   70 1   
    69   64   71 1   
    70   65   66 1   
    71   65   67 2   
    72   66   72 1   
    73   66   73 1   
    74   74   75 1   
    75   74   78 1   
    76   75   76 1   
    77   75   79 1   
    78   75   80 1   
    79   76   77 2   
    80   76   81 1   
    81   81   82 1   
    82   81   93 1   
    83   82   83 1   
    84   82   85 1   
    85   82   94 1   
    86   83   84 2   
    87   83  102 1   
    88   85   86 1   
    89   85   95 1   
    90   85   96 1   
    91   86   87 ar  
    92   86   88 ar  
    93   87   89 ar  
    94   87   97 1   
    95   88   90 ar  
    96   88   98 1   
    97   89   91 ar  
    98   89   99 1   
    99   90   91 ar  
   100   90  100 1   
   101   91   92 1   
   102   92  101 1   
   103  102  103 1   
   104  102  110 1   
   105  103  104 1   
   106  103  106 1   
   107  103  111 1   
   108  104  105 2   
   109  104  121 1   
   110  106  107 1   
   111  106  108 1   
   112  106  112 1   
   113  107  109 1   
   114  107  113 1   
   115  107  114 1   
   116  108  115 1   
   117  108  116 1   
   118  108  117 1   
   119  109  118 1   
   120  109  119 1   
   121  109  120 1   
   122  121  122 1   
   123  121  127 1   
   124  122  123 1   
   125  122  125 1   
   126  122  128 1   
   127  123  124 2   
   128  123  132 1   
   129  125  126 1   
   130  125  129 1   
   131  125  130 1   
   132  126  131 1   
   133  132  133 1   
   134  132  137 1   
   135  133  134 1   
   136  133  136 1   
   137  133  138 1   
   138  134  135 2   
   139  134  142 1   
   140  136  139 1   
   141  136  140 1   
   142  136  141 1   
   143  142  143 1   
   144  142  147 1   
   145  143  144 1   
   146  143  146 1   
   147  143  148 1   
   148  144  145 2   
   149  144  152 1   
   150  146  149 1   
   151  146  150 1   
   152  146  151 1   
   153  152  153 1   
   154  152  161 1   
   155  153  154 1   
   156  153  156 1   
   157  153  162 1   
   158  154  155 2   
   159  154  167 1   
   160  156  157 1   
   161  156  163 1   
   162  156  164 1   
   163  157  158 1   
   164  157  165 1   
   165  157  166 1   
   166  158  159 1   
   167  158  160 1   
   168  167  168 1   
   169  167  172 1   
   170  168  169 1   
   171  168  170 1   
   172  168  171 1   
   173  174  175 1   
   174  174  176 1   
   175  177  178 1   
   176  177  179 1   
@<TRIPOS>SUBSTRUCTURE
     1 MOL         1 TEMP              0 ****  ****    0 ROOT
