@<TRIPOS>MOLECULE
MOL
  172   171     1     0     0
SMALL
resp


@<TRIPOS>ATOM
      1 C1          0.3300    4.7730    4.9800 c3        1 MOL     -0.238455
      2 C2         -0.3720    4.4140    3.6690 c         1 MOL      0.738409
      3 O1          0.2190    4.6230    2.6530 o         1 MOL     -0.559830
      4 H1          1.3990    4.8890    4.7990 hc        1 MOL      0.045167
      5 H2         -0.0760    5.7080    5.3680 hc        1 MOL      0.045167
      6 H3          0.1700    3.9770    5.7080 hc        1 MOL      0.045167
      7 N1         -1.6310    4.0990    3.6830 n         1 MOL     -0.600710
      8 C3         -2.3120    3.7000    2.4750 c3        1 MOL      0.080390
      9 C4         -2.5530    4.9020    1.5300 c         1 MOL      0.561222
     10 O2         -3.0170    5.9980    1.8950 o         1 MOL     -0.579978
     11 C5         -3.6870    3.1410    2.8250 c3        1 MOL     -0.253564
     12 C6         -4.5030    2.8050    1.5660 c         1 MOL      0.752459
     13 O3         -5.5770    3.3380    1.3410 o         1 MOL     -0.683386
     14 O4         -4.0940    1.9240    0.7920 o         1 MOL     -0.683386
     15 H4         -2.1350    3.9810    4.5440 hn        1 MOL      0.319371
     16 H5         -1.7530    2.9620    1.8940 h1        1 MOL      0.082437
     17 H6         -4.2250    3.7960    3.5130 hc        1 MOL      0.058602
     18 H7         -3.5820    2.3010    3.5100 hc        1 MOL      0.058602
     19 N2         -2.3950    4.5710    0.2610 n         1 MOL     -0.379368
     20 C7         -2.7820    5.4410   -0.8760 c3        1 MOL      0.324316
     21 C8         -3.6610    4.8330   -1.9990 c         1 MOL      0.398938
     22 O5         -3.7630    5.4390   -3.0550 o         1 MOL     -0.550257
     23 C9         -1.5360    6.1920   -1.2380 c3        1 MOL     -0.391534
     24 H8         -1.8810    3.7320    0.0540 hn        1 MOL      0.240861
     25 H9         -3.4480    6.2110   -0.4850 h1        1 MOL      0.015734
     26 H10        -1.8020    6.8610   -2.0490 hc        1 MOL      0.088426
     27 H11        -1.0490    6.7500   -0.4480 hc        1 MOL      0.088426
     28 H12        -0.7150    5.5760   -1.6060 hc        1 MOL      0.088426
     29 N3         -4.1970    3.6330   -1.7990 n         1 MOL     -0.112669
     30 C10        -5.0450    3.0840   -2.8760 c3        1 MOL     -0.104897
     31 C11        -6.2430    2.2070   -2.4550 c         1 MOL      0.514307
     32 O6         -6.9960    1.8660   -3.3240 o         1 MOL     -0.557688
     33 C12        -4.1300    2.1850   -3.8110 c3        1 MOL     -0.021923
     34 C13        -3.4430    0.9730   -3.1250 c         1 MOL      0.714154
     35 O7         -2.5480    0.3760   -3.7080 o         1 MOL     -0.719371
     36 O8         -3.8320    0.4750   -2.0670 o         1 MOL     -0.719371
     37 H13        -4.1690    3.1440   -0.9230 hn        1 MOL     -0.016410
     38 H14        -5.4590    3.9000   -3.4810 h1        1 MOL      0.088822
     39 H15        -3.3670    2.8780   -4.1870 hc        1 MOL      0.012888
     40 H16        -4.7770    1.8710   -4.6330 hc        1 MOL      0.012888
     41 N4         -6.4100    1.8830   -1.1840 n         1 MOL     -0.299713
     42 C14        -7.5140    1.0420   -0.7440 c3        1 MOL     -0.183908
     43 C15        -7.3930   -0.4190   -1.1300 c         1 MOL      0.601304
     44 O9         -8.4280   -1.0470   -1.0180 o         1 MOL     -0.615482
     45 H17        -5.8430    2.4080   -0.5360 hn        1 MOL      0.279976
     46 H18        -8.4000    1.4450   -1.2260 h1        1 MOL      0.109274
     47 H19        -7.7240    1.0900    0.3230 h1        1 MOL      0.109274
     48 N5         -6.2220   -1.0000   -1.5990 n         1 MOL     -0.370503
     49 C16        -6.2380   -2.3650   -2.0410 c3        1 MOL      0.284635
     50 C17        -6.3080   -3.4890   -0.9900 c         1 MOL      0.298324
     51 O10        -6.2950   -4.7000   -1.2380 o         1 MOL     -0.494060
     52 C18        -5.0770   -2.5830   -2.9410 c3        1 MOL     -0.473432
     53 C19        -3.6960   -2.6750   -2.2550 c         1 MOL      0.929015
     54 N6         -2.6460   -3.1290   -2.8890 n         1 MOL     -0.771866
     55 O11        -3.5520   -2.3100   -1.1350 o         1 MOL     -0.782048
     56 H20        -5.4170   -0.4230   -1.8130 hn        1 MOL      0.172152
     57 H21        -7.1700   -2.4400   -2.6020 h1        1 MOL      0.056005
     58 H22        -5.0250   -1.7870   -3.6950 hc        1 MOL      0.122619
     59 H23        -5.3330   -3.5140   -3.4300 hc        1 MOL      0.122619
     60 H24        -2.6520   -3.2860   -3.8870 hn        1 MOL      0.363072
     61 H25        -1.7570   -2.9080   -2.4750 hn        1 MOL      0.363072
     62 N7         -6.3880   -3.0970    0.2930 n         1 MOL     -0.157699
     63 C20        -6.4200   -3.9250    1.4770 c3        1 MOL     -0.152605
     64 C21        -5.0400   -4.3020    1.9560 c         1 MOL      0.546079
     65 O12        -5.0190   -5.1830    2.8140 o         1 MOL     -0.591429
     66 H26        -6.3310   -2.1140    0.5510 hn        1 MOL      0.192269
     67 H27        -6.8990   -4.8740    1.2550 h1        1 MOL      0.102195
     68 H28        -6.9650   -3.4410    2.2910 h1        1 MOL      0.102195
     69 N8         -3.8850   -3.8110    1.4590 n         1 MOL     -0.276395
     70 C22        -2.4940   -4.2730    1.8540 c3        1 MOL     -0.109539
     71 C23        -1.4930   -3.1720    1.8580 c         1 MOL      0.496963
     72 O13        -1.6750   -2.2020    1.1270 o         1 MOL     -0.571057
     73 C24        -2.0710   -5.3690    0.9450 c3        1 MOL      0.607997
     74 C25        -2.7050   -6.7370    1.1980 c3        1 MOL     -0.640559
     75 O14        -2.3460   -5.0310   -0.4130 oh        1 MOL     -0.628060
     76 H29        -3.9230   -3.0990    0.7390 hn        1 MOL      0.161700
     77 H30        -2.5200   -4.5930    2.8920 h1        1 MOL      0.074651
     78 H31        -0.9850   -5.4030    1.0010 h1        1 MOL     -0.066684
     79 H32        -2.4520   -4.0830   -0.5040 ho        1 MOL      0.375829
     80 H33        -2.2760   -7.4310    0.4710 hc        1 MOL      0.159601
     81 H34        -2.6520   -7.1760    2.1910 hc        1 MOL      0.159601
     82 H35        -3.7710   -6.7870    0.9540 hc        1 MOL      0.159601
     83 N9         -0.3330   -3.4450    2.4610 n         1 MOL     -0.436257
     84 C26         0.8910   -2.7030    2.2910 c3        1 MOL      0.144962
     85 C27         1.5610   -3.2050    1.0590 c         1 MOL      0.599282
     86 O15         1.7940   -4.4150    0.8360 o         1 MOL     -0.569052
     87 C28         1.6230   -2.6040    3.6120 c3        1 MOL     -0.047719
     88 C29         1.0380   -1.3120    4.3910 c3        1 MOL     -0.024211
     89 C30         3.1230   -2.5200    3.3010 c3        1 MOL     -0.108606
     90 C31         1.6340   -1.2480    5.7770 c3        1 MOL     -0.047351
     91 H36        -0.2680   -4.3470    2.9160 hn        1 MOL      0.242478
     92 H37         0.5840   -1.6870    2.0130 h1        1 MOL      0.008654
     93 H38         1.4410   -3.5620    4.1170 hc        1 MOL      0.051999
     94 H39        -0.0350   -1.5270    4.4570 hc        1 MOL      0.013666
     95 H40         1.2490   -0.4140    3.8130 hc        1 MOL      0.013666
     96 H41         3.4700   -3.4890    2.9140 hc        1 MOL      0.012504
     97 H42         3.4470   -1.7150    2.6400 hc        1 MOL      0.012504
     98 H43         3.7000   -2.3130    4.1930 hc        1 MOL      0.012504
     99 H44         1.1570   -0.4840    6.3850 hc        1 MOL      0.009486
    100 H45         1.5440   -2.1840    6.3190 hc        1 MOL      0.009486
    101 H46         2.6800   -0.9470    5.7460 hc        1 MOL      0.009486
    102 N10         2.0450   -2.1550    0.3630 n         1 MOL     -0.447396
    103 C32         2.7610   -2.2050   -0.9150 c3        1 MOL      0.010356
    104 C33         4.2630   -1.8490   -0.6970 c         1 MOL      0.487099
    105 O16         4.6530   -1.5390    0.4270 o         1 MOL     -0.412352
    106 C34         2.1060   -1.2080   -1.8500 c3        1 MOL     -0.167553
    107 C35         0.6550   -1.7480   -2.0380 c         1 MOL      0.720856
    108 O17        -0.3040   -1.2670   -1.3970 o         1 MOL     -0.669722
    109 O18         0.4330   -2.5580   -2.9480 o         1 MOL     -0.669722
    110 H47         1.7720   -1.2860    0.8000 hn        1 MOL      0.360636
    111 H48         2.6930   -3.1920   -1.3550 h1        1 MOL      0.082336
    112 H49         2.6540   -1.2060   -2.7930 hc        1 MOL      0.027397
    113 H50         2.0840   -0.2070   -1.4110 hc        1 MOL      0.027397
    114 N11         5.1520   -1.8100   -1.7310 n         1 MOL     -0.513752
    115 C36         6.5740   -1.4590   -1.4770 c3        1 MOL      0.293441
    116 C37         6.8070    0.0010   -1.0780 c         1 MOL      0.360364
    117 O19         7.3950    0.2290   -0.0420 o         1 MOL     -0.462911
    118 C38         7.4770   -1.8730   -2.5810 c3        1 MOL     -0.295819
    119 C39         8.9250   -1.7910   -2.2390 ca        1 MOL      0.223801
    120 C40         9.6970   -0.8380   -2.9310 ca        1 MOL     -0.262697
    121 C41         9.5380   -2.6610   -1.3120 ca        1 MOL     -0.262697
    122 C42        11.0370   -0.6260   -2.6420 ca        1 MOL     -0.047949
    123 C43        10.9020   -2.4910   -0.9910 ca        1 MOL     -0.047949
    124 C44        11.6350   -1.4600   -1.6480 ca        1 MOL     -0.170971
    125 H51         5.0220   -2.3740   -2.5580 hn        1 MOL      0.290216
    126 H52         6.8510   -2.0360   -0.5920 h1        1 MOL      0.030354
    127 H53         7.3130   -1.2900   -3.4940 hc        1 MOL      0.079558
    128 H54         7.3450   -2.9370   -2.7850 hc        1 MOL      0.079558
    129 H55         9.2730   -0.2630   -3.7450 ha        1 MOL      0.146080
    130 H56         8.9040   -3.2740   -0.7000 ha        1 MOL      0.146080
    131 H57        11.6520    0.0590   -3.2120 ha        1 MOL      0.104311
    132 H58        11.3830   -3.1050   -0.2380 ha        1 MOL      0.104311
    133 H59        12.6800   -1.3170   -1.4290 ha        1 MOL      0.106136
    134 N12         6.3220    1.0530   -1.8240 n         1 MOL     -0.122967
    135 C45         6.4530    2.5340   -1.4550 c3        1 MOL     -0.116935
    136 C46         5.8030    2.9030   -0.1230 c         1 MOL      0.361475
    137 O20         6.4710    3.6280    0.6190 o         1 MOL     -0.487738
    138 C47         5.8050    3.3180   -2.6050 c3        1 MOL      0.109343
    139 C48         5.5980    2.3220   -3.7160 c3        1 MOL     -0.168304
    140 C49         5.3660    0.9810   -2.9820 c3        1 MOL     -0.056148
    141 H60         7.5180    2.7740   -1.4560 h1        1 MOL      0.102686
    142 H61         4.8260    3.7310   -2.3580 hc        1 MOL      0.010128
    143 H62         6.3690    4.1940   -2.9390 hc        1 MOL      0.010128
    144 H63         4.6950    2.5330   -4.2870 hc        1 MOL      0.062185
    145 H64         6.5110    2.3490   -4.3170 hc        1 MOL      0.062185
    146 H65         4.3820    0.7600   -2.5780 h1        1 MOL      0.059752
    147 H66         5.6320    0.2170   -3.7170 h1        1 MOL      0.059752
    148 N13         4.6830    2.3020    0.1920 n         1 MOL     -0.205334
    149 C50         3.9910    2.3110    1.4920 c3        1 MOL     -0.058568
    150 C51         4.8260    1.7390    2.6310 c         1 MOL      0.461075
    151 O21         5.0350    2.4140    3.6430 o         1 MOL     -0.543314
    152 C52         2.7010    1.4960    1.3210 c3        1 MOL     -0.241677
    153 C53         1.7090    2.2030    0.3360 c3        1 MOL     -0.001155
    154 C54         0.3260    1.5270    0.3240 c         1 MOL      0.756547
    155 O22        -0.5720    1.9700   -0.3530 o         1 MOL     -0.800242
    156 O23         0.0240    0.5990    1.0760 o         1 MOL     -0.800242
    157 H67         4.2500    1.7760   -0.5560 hn        1 MOL      0.261195
    158 H68         3.6730    3.2840    1.8580 h1        1 MOL      0.111303
    159 H69         2.1910    1.4700    2.2880 hc        1 MOL      0.092869
    160 H70         2.9840    0.5260    0.9180 hc        1 MOL      0.092869
    161 H71         2.0680    2.1520   -0.6930 hc        1 MOL      0.022584
    162 H72         1.6160    3.2600    0.5760 hc        1 MOL      0.022584
    163 N14         5.4050    0.5100    2.4910 n         1 MOL     -0.010378
    164 C55         6.4530   -0.0520    3.3730 c3        1 MOL     -0.312669
    165 H73         7.4350    0.2390    3.0000 h1        1 MOL      0.107322
    166 H74         6.3200    0.3310    4.3850 h1        1 MOL      0.107322
    167 H75         6.3750   -1.1400    3.3820 h1        1 MOL      0.107322
    168 H76         5.3170    0.0020    1.6290 hn        1 MOL      0.092351
    169 Ca1        -2.2120   -0.0860   -0.1420 Ca        1 MOL      1.775265
    170 O24        -2.2380    0.2910    2.8600 oh        1 MOL     -0.853251
    171 H77        -1.3180    0.1440    2.6070 ho        1 MOL      0.403516
    172 H78        -2.2180    0.3150    3.8150 ho        1 MOL      0.403516
@<TRIPOS>BOND
     1    1    2 1   
     2    1    4 1   
     3    1    5 1   
     4    1    6 1   
     5    2    3 2   
     6    2    7 1   
     7    7    8 1   
     8    7   15 1   
     9    8    9 1   
    10    8   11 1   
    11    8   16 1   
    12    9   10 2   
    13    9   19 1   
    14   11   12 1   
    15   11   17 1   
    16   11   18 1   
    17   12   13 1   
    18   12   14 1   
    19   19   20 1   
    20   19   24 1   
    21   20   21 1   
    22   20   23 1   
    23   20   25 1   
    24   21   22 2   
    25   21   29 1   
    26   23   26 1   
    27   23   27 1   
    28   23   28 1   
    29   29   30 1   
    30   29   37 1   
    31   30   31 1   
    32   30   33 1   
    33   30   38 1   
    34   31   32 2   
    35   31   41 1   
    36   33   34 1   
    37   33   39 1   
    38   33   40 1   
    39   34   35 1   
    40   34   36 1   
    41   41   42 1   
    42   41   45 1   
    43   42   43 1   
    44   42   46 1   
    45   42   47 1   
    46   43   44 2   
    47   43   48 1   
    48   48   49 1   
    49   48   56 1   
    50   49   50 1   
    51   49   52 1   
    52   49   57 1   
    53   50   51 2   
    54   50   62 1   
    55   52   53 1   
    56   52   58 1   
    57   52   59 1   
    58   53   54 1   
    59   53   55 2   
    60   54   60 1   
    61   54   61 1   
    62   62   63 1   
    63   62   66 1   
    64   63   64 1   
    65   63   67 1   
    66   63   68 1   
    67   64   65 2   
    68   64   69 1   
    69   69   70 1   
    70   69   76 1   
    71   70   71 1   
    72   70   73 1   
    73   70   77 1   
    74   71   72 2   
    75   71   83 1   
    76   73   74 1   
    77   73   75 1   
    78   73   78 1   
    79   74   80 1   
    80   74   81 1   
    81   74   82 1   
    82   75   79 1   
    83   83   84 1   
    84   83   91 1   
    85   84   85 1   
    86   84   87 1   
    87   84   92 1   
    88   85   86 2   
    89   85  102 1   
    90   87   88 1   
    91   87   89 1   
    92   87   93 1   
    93   88   90 1   
    94   88   94 1   
    95   88   95 1   
    96   89   96 1   
    97   89   97 1   
    98   89   98 1   
    99   90   99 1   
   100   90  100 1   
   101   90  101 1   
   102  102  103 1   
   103  102  110 1   
   104  103  104 1   
   105  103  106 1   
   106  103  111 1   
   107  104  105 2   
   108  104  114 1   
   109  106  107 1   
   110  106  112 1   
   111  106  113 1   
   112  107  108 1   
   113  107  109 1   
   114  114  115 1   
   115  114  125 1   
   116  115  116 1   
   117  115  118 1   
   118  115  126 1   
   119  116  117 2   
   120  116  134 1   
   121  118  119 1   
   122  118  127 1   
   123  118  128 1   
   124  119  120 ar  
   125  119  121 ar  
   126  120  122 ar  
   127  120  129 1   
   128  121  123 ar  
   129  121  130 1   
   130  122  124 ar  
   131  122  131 1   
   132  123  124 ar  
   133  123  132 1   
   134  124  133 1   
   135  134  135 1   
   136  134  140 1   
   137  135  136 1   
   138  135  138 1   
   139  135  141 1   
   140  136  137 2   
   141  136  148 1   
   142  138  139 1   
   143  138  142 1   
   144  138  143 1   
   145  139  140 1   
   146  139  144 1   
   147  139  145 1   
   148  140  146 1   
   149  140  147 1   
   150  148  149 1   
   151  148  157 1   
   152  149  150 1   
   153  149  152 1   
   154  149  158 1   
   155  150  151 2   
   156  150  163 1   
   157  152  153 1   
   158  152  159 1   
   159  152  160 1   
   160  153  154 1   
   161  153  161 1   
   162  153  162 1   
   163  154  155 1   
   164  154  156 1   
   165  163  164 1   
   166  163  168 1   
   167  164  165 1   
   168  164  166 1   
   169  164  167 1   
   170  170  171 1   
   171  170  172 1   
@<TRIPOS>SUBSTRUCTURE
     1 MOL         1 TEMP              0 ****  ****    0 ROOT
