@<TRIPOS>MOLECULE
MOL
  175   173     1     0     0
SMALL
resp


@<TRIPOS>ATOM
      1 C1          0.3150    3.4840    5.4630 c3        1 MOL     -0.509278
      2 C2         -0.3880    3.4290    4.0900 c         1 MOL      0.718451
      3 O1          0.2780    3.5110    3.0660 o         1 MOL     -0.533262
      4 H1         -0.4280    3.6470    6.2450 hc        1 MOL      0.128930
      5 H2          0.8320    2.5430    5.6460 hc        1 MOL      0.128930
      6 H3          1.0350    4.3030    5.4710 hc        1 MOL      0.128930
      7 N1         -1.7310    3.4240    4.0180 n         1 MOL     -0.674969
      8 C3         -2.4700    3.2800    2.7190 c3        1 MOL      0.283827
      9 C4         -2.5220    4.6220    1.9030 c         1 MOL      0.578588
     10 O2         -2.7730    5.7030    2.4730 o         1 MOL     -0.583895
     11 C5         -3.8700    2.6480    2.9290 c3        1 MOL     -0.377908
     12 C6         -4.4960    2.0270    1.6150 c         1 MOL      0.786462
     13 O3         -5.7160    1.7520    1.7610 o         1 MOL     -0.672964
     14 O4         -3.9070    1.9580    0.5040 o         1 MOL     -0.672964
     15 H4         -2.2700    3.5350    4.8560 hn        1 MOL      0.332064
     16 H5         -1.8720    2.5510    2.1670 h1        1 MOL     -0.022558
     17 H6         -4.6290    3.3140    3.3400 hc        1 MOL      0.083801
     18 H7         -3.6900    1.8210    3.6070 hc        1 MOL      0.083801
     19 N2         -2.6540    4.5030    0.5800 n         1 MOL     -0.542224
     20 C7         -2.9730    5.6600   -0.2560 c3        1 MOL      0.284951
     21 C8         -3.7680    5.3040   -1.5350 c         1 MOL      0.285060
     22 O5         -3.8890    6.1500   -2.4160 o         1 MOL     -0.510416
     23 C9         -1.6820    6.3210   -0.6710 c3        1 MOL     -0.285317
     24 H8         -2.3250    3.6560    0.1420 hn        1 MOL      0.334541
     25 H9         -3.5460    6.3680    0.3430 h1        1 MOL      0.037895
     26 H10        -1.0020    6.6490    0.1240 hc        1 MOL      0.073769
     27 H11        -1.1800    5.6760   -1.3920 hc        1 MOL      0.073769
     28 H12        -1.9560    7.2090   -1.2380 hc        1 MOL      0.073769
     29 N3         -4.1420    3.9920   -1.6580 n         1 MOL     -0.123727
     30 C10        -4.9500    3.3810   -2.7170 c3        1 MOL      0.062820
     31 C11        -6.1560    2.5470   -2.2360 c         1 MOL      0.299359
     32 O6         -7.0060    2.3170   -3.1030 o         1 MOL     -0.554726
     33 C12        -4.0540    2.5550   -3.6400 c3        1 MOL     -0.209659
     34 C13        -3.3620    1.4070   -2.9100 c         1 MOL      0.673188
     35 O7         -4.0170    0.6710   -2.1750 o         1 MOL     -0.670264
     36 O8         -2.1530    1.4560   -2.8510 o         1 MOL     -0.670264
     37 H13        -3.8980    3.3630   -0.9070 hn        1 MOL      0.121892
     38 H14        -5.3070    4.2470   -3.2770 h1        1 MOL      0.070575
     39 H15        -3.3060    3.2650   -3.9900 hc        1 MOL      0.058796
     40 H16        -4.5220    2.1330   -4.5280 hc        1 MOL      0.058796
     41 N4         -6.2960    1.9800   -1.0600 n         1 MOL     -0.081134
     42 C14        -7.4510    1.0970   -0.7970 c3        1 MOL     -0.254419
     43 C15        -7.3340   -0.4460   -1.0830 c         1 MOL      0.533505
     44 O9         -8.2820   -1.2380   -0.9230 o         1 MOL     -0.636555
     45 H17        -5.5540    2.0890   -0.3780 hn        1 MOL      0.096078
     46 H18        -8.3240    1.3810   -1.3810 h1        1 MOL      0.120025
     47 H19        -7.6950    1.2170    0.2590 h1        1 MOL      0.120025
     48 N5         -6.1720   -0.8690   -1.5460 n         1 MOL     -0.250796
     49 C16        -5.9770   -2.1750   -2.1700 c3        1 MOL      0.102165
     50 C17        -5.8200   -3.2820   -1.0900 c         1 MOL      0.440590
     51 O10        -5.2850   -4.3690   -1.4160 o         1 MOL     -0.534857
     52 C18        -4.8830   -2.0880   -3.2090 c3        1 MOL     -0.389372
     53 C19        -3.5060   -2.0830   -2.6060 c         1 MOL      0.799052
     54 N6         -2.5900   -2.1190   -3.4440 n         1 MOL     -0.608335
     55 O11        -3.2420   -2.0420   -1.4300 o         1 MOL     -0.818371
     56 H20        -5.4230   -0.2020   -1.6830 hn        1 MOL      0.316512
     57 H21        -6.9310   -2.3990   -2.6540 h1        1 MOL      0.076271
     58 H22        -4.9610   -1.1860   -3.8310 hc        1 MOL      0.101427
     59 H23        -4.9800   -3.0080   -3.7830 hc        1 MOL      0.101427
     60 H24        -2.7330   -2.1300   -4.4390 hn        1 MOL      0.323906
     61 H25        -1.7330   -1.8510   -2.9750 hn        1 MOL      0.323906
     62 N7         -6.2390   -3.0180    0.1570 n         1 MOL     -0.303873
     63 C20        -6.1720   -3.9020    1.3760 c3        1 MOL     -0.147067
     64 C21        -4.7420   -4.3330    1.7910 c         1 MOL      0.427856
     65 O12        -4.6530   -5.0880    2.8230 o         1 MOL     -0.598324
     66 H26        -6.6710   -2.1110    0.2890 hn        1 MOL      0.273103
     67 H27        -6.7200   -4.8200    1.1670 h1        1 MOL      0.117646
     68 H28        -6.6660   -3.4900    2.2550 h1        1 MOL      0.117646
     69 N8         -3.7320   -3.9180    1.1300 n         1 MOL      0.006062
     70 C22        -2.3710   -4.4470    1.1690 c3        1 MOL     -0.105798
     71 C23        -1.2950   -3.4390    1.2620 c         1 MOL      0.276981
     72 O13        -1.3280   -2.3620    0.6350 o         1 MOL     -0.259636
     73 C24        -2.1590   -5.4490   -0.0150 c3        1 MOL      0.540242
     74 C25        -2.9730   -6.6720    0.3120 c3        1 MOL     -0.513567
     75 O14        -2.5060   -4.9540   -1.3460 oh        1 MOL     -0.653737
     76 H29        -3.9060   -3.2220    0.4160 hn        1 MOL     -0.009396
     77 H30        -2.1720   -5.0240    2.0690 h1        1 MOL      0.059276
     78 H31        -1.1360   -5.8070    0.0200 h1        1 MOL      0.004944
     79 H32        -3.3910   -4.5760   -1.2810 ho        1 MOL      0.425243
     80 H33        -2.6850   -7.4850   -0.3470 hc        1 MOL      0.113311
     81 H34        -2.8950   -6.8780    1.3800 hc        1 MOL      0.113311
     82 H35        -4.0320   -6.4340    0.2080 hc        1 MOL      0.113311
     83 N9         -0.2370   -3.7590    1.9470 n         1 MOL     -0.280811
     84 C26         0.9980   -2.9520    1.9180 c3        1 MOL     -0.028592
     85 C27         1.7970   -3.0260    0.6610 c         1 MOL      0.596605
     86 O15         2.3020   -4.0740    0.3680 o         1 MOL     -0.616203
     87 C28         1.8310   -3.1420    3.2340 c3        1 MOL     -0.057628
     88 C29         1.1530   -2.2720    4.3720 c3        1 MOL      0.195755
     89 C30         3.3630   -2.7490    3.1570 c3        1 MOL     -0.187154
     90 C31         1.8130   -2.5920    5.6680 c3        1 MOL     -0.336191
     91 H36        -0.0760   -4.6760    2.3200 hn        1 MOL      0.245623
     92 H37         0.7100   -1.8960    1.9130 h1        1 MOL      0.030513
     93 H38         1.6640   -4.1930    3.4540 hc        1 MOL      0.043114
     94 H39         0.0770   -2.4420    4.3780 hc        1 MOL     -0.020326
     95 H40         1.3320   -1.2270    4.1340 hc        1 MOL     -0.020326
     96 H41         3.4320   -1.6580    3.1610 hc        1 MOL      0.052464
     97 H42         3.7800   -3.1730    4.0710 hc        1 MOL      0.052464
     98 H43         3.8110   -3.0940    2.2290 hc        1 MOL      0.052464
     99 H44         2.8490   -2.2380    5.7130 hc        1 MOL      0.071266
    100 H45         1.2440   -2.0380    6.4190 hc        1 MOL      0.071266
    101 H46         1.9080   -3.6720    5.7630 hc        1 MOL      0.071266
    102 N10         1.8060   -2.0450   -0.2100 n         1 MOL     -0.058844
    103 C32         2.7050   -1.8600   -1.3620 c3        1 MOL      0.013343
    104 C33         4.1610   -1.5280   -0.8600 c         1 MOL      0.570550
    105 O16         4.4120   -1.2650    0.3270 o         1 MOL     -0.396124
    106 C34         2.0970   -0.8170   -2.2860 c3        1 MOL     -0.308935
    107 C35         0.6470   -1.0850   -2.6080 c         1 MOL      0.818046
    108 O17        -0.2870   -0.6030   -1.9560 o         1 MOL     -0.700672
    109 O18         0.3520   -1.7030   -3.6820 o         1 MOL     -0.700672
    110 H47         1.0500   -1.3880   -0.0370 hn        1 MOL     -0.161595
    111 H48         2.6950   -2.8680   -1.7890 h1        1 MOL      0.071126
    112 H49         2.6310   -0.8210   -3.2370 hc        1 MOL      0.076522
    113 H50         2.1740    0.1370   -1.7720 hc        1 MOL      0.076522
    114 N11         5.1470   -1.5230   -1.8280 n         1 MOL     -0.925976
    115 C36         6.5680   -1.3230   -1.4530 c3        1 MOL      0.951406
    116 C37         6.9450    0.0840   -0.9020 c         1 MOL      0.108230
    117 O19         7.7310    0.1540    0.1340 o         1 MOL     -0.456754
    118 C38         7.4070   -1.7750   -2.5480 c3        1 MOL     -0.219296
    119 C39         8.8530   -1.4790   -2.4260 ca        1 MOL      0.101698
    120 C40         9.5570   -1.8300   -1.2860 ca        1 MOL     -0.173932
    121 C41         9.5010   -0.7390   -3.3870 ca        1 MOL     -0.173932
    122 C42        10.8590   -1.3710   -1.1100 ca        1 MOL     -0.131854
    123 C43        10.8950   -0.3090   -3.2720 ca        1 MOL     -0.131854
    124 C44        11.5640   -0.7230   -2.1080 ca        1 MOL     -0.079644
    125 H51         4.8660   -1.5240   -2.7970 hn        1 MOL      0.390493
    126 H52         6.7470   -1.9950   -0.6190 h1        1 MOL     -0.094679
    127 H53         6.9700   -1.2420   -3.3950 hc        1 MOL      0.020562
    128 H54         7.2090   -2.8400   -2.6450 hc        1 MOL      0.020562
    129 H55         9.0860   -2.3880   -0.4900 ha        1 MOL      0.115657
    130 H56         8.9670   -0.4000   -4.2520 ha        1 MOL      0.115657
    131 H57        11.3480   -1.4370   -0.1430 ha        1 MOL      0.117159
    132 H58        11.3470    0.2360   -4.0890 ha        1 MOL      0.117159
    133 H59        12.6100   -0.4790   -1.9970 ha        1 MOL      0.088829
    134 N12         6.2560    1.1380   -1.4450 n         1 MOL     -0.041960
    135 C45         6.4860    2.5130   -0.9350 c3        1 MOL      0.051467
    136 C46         5.6210    2.7850    0.3510 c         1 MOL      0.251250
    137 O20         5.8050    3.7940    1.0220 o         1 MOL     -0.485283
    138 C47         6.1110    3.5580   -2.0660 c3        1 MOL     -0.257991
    139 C48         6.0980    2.6670   -3.2970 c3        1 MOL      0.146271
    140 C49         5.6760    1.2600   -2.7940 c3        1 MOL     -0.138958
    141 H60         7.5370    2.6520   -0.6930 h1        1 MOL      0.086524
    142 H61         5.0950    3.9180   -1.8980 hc        1 MOL      0.105433
    143 H62         6.8580    4.3480   -2.1900 hc        1 MOL      0.105433
    144 H63         5.4370    3.0440   -4.0880 hc        1 MOL     -0.015825
    145 H64         7.0140    2.4700   -3.8550 hc        1 MOL     -0.015825
    146 H65         4.5960    1.2240   -2.7170 h1        1 MOL      0.068705
    147 H66         5.9700    0.5150   -3.5290 h1        1 MOL      0.068705
    148 N13         4.7430    1.8400    0.5950 n         1 MOL      0.026017
    149 C50         3.9590    1.8690    1.8840 c3        1 MOL      0.009750
    150 C51         4.7300    1.2080    3.0570 c         1 MOL      0.374613
    151 O21         4.8450    1.7960    4.2030 o         1 MOL     -0.557660
    152 C52         2.6080    1.2070    1.6350 c3        1 MOL     -0.093332
    153 C53         1.8330    1.9540    0.5720 c3        1 MOL     -0.061237
    154 C54         0.4230    1.4390    0.4190 c         1 MOL      0.705040
    155 O22         0.0930    0.3800    0.9860 o         1 MOL     -0.744943
    156 O23        -0.5380    2.1350   -0.1240 o         1 MOL     -0.744943
    157 H67         4.7170    0.9680    0.0820 hn        1 MOL      0.006131
    158 H68         3.8410    2.8200    2.3880 h1        1 MOL      0.087992
    159 H69         2.0040    1.1220    2.5400 hc        1 MOL      0.089962
    160 H70         2.6750    0.1770    1.2870 hc        1 MOL      0.089962
    161 H71         2.3260    1.9400   -0.4040 hc        1 MOL      0.038777
    162 H72         1.8610    3.0060    0.8540 hc        1 MOL      0.038777
    163 N14         5.4550    0.1480    2.7800 n         1 MOL     -0.063762
    164 C55         6.5330   -0.4730    3.5520 c3        1 MOL     -0.112805
    165 H73         7.3170   -0.8120    2.8740 h1        1 MOL      0.058936
    166 H74         6.9470    0.2560    4.2500 h1        1 MOL      0.058936
    167 H75         6.1400   -1.3250    4.1070 h1        1 MOL      0.058936
    168 H76         5.1450   -0.3690    1.9650 hn        1 MOL      0.083309
    169 Ca1        -2.1660    0.1040   -0.3580 Ca        1 MOL      1.763664
    170 O24        -1.8010    0.1140    2.7580 oh        1 MOL     -0.806941
    171 H77        -1.5750    0.7210    3.4600 ho        1 MOL      0.388084
    172 H78        -1.0160    0.1010    2.2050 ho        1 MOL      0.388084
    173 O25        -4.1930   -0.9530    1.1230 oh        1 MOL     -0.806941
    174 H79        -3.8320   -1.0150    2.0050 ho        1 MOL      0.388084
    175 H80        -5.1400   -0.8940    1.2590 ho        1 MOL      0.388084
@<TRIPOS>BOND
     1    1    2 1   
     2    1    4 1   
     3    1    5 1   
     4    1    6 1   
     5    2    3 2   
     6    2    7 1   
     7    7    8 1   
     8    7   15 1   
     9    8    9 1   
    10    8   11 1   
    11    8   16 1   
    12    9   10 2   
    13    9   19 1   
    14   11   12 1   
    15   11   17 1   
    16   11   18 1   
    17   12   13 1   
    18   12   14 1   
    19   19   20 1   
    20   19   24 1   
    21   20   21 1   
    22   20   23 1   
    23   20   25 1   
    24   21   22 2   
    25   21   29 1   
    26   23   26 1   
    27   23   27 1   
    28   23   28 1   
    29   29   30 1   
    30   29   37 1   
    31   30   31 1   
    32   30   33 1   
    33   30   38 1   
    34   31   32 2   
    35   31   41 1   
    36   33   34 1   
    37   33   39 1   
    38   33   40 1   
    39   34   35 1   
    40   34   36 1   
    41   41   42 1   
    42   41   45 1   
    43   42   43 1   
    44   42   46 1   
    45   42   47 1   
    46   43   44 2   
    47   43   48 1   
    48   48   49 1   
    49   48   56 1   
    50   49   50 1   
    51   49   52 1   
    52   49   57 1   
    53   50   51 2   
    54   50   62 1   
    55   52   53 1   
    56   52   58 1   
    57   52   59 1   
    58   53   54 1   
    59   53   55 2   
    60   54   60 1   
    61   54   61 1   
    62   62   63 1   
    63   62   66 1   
    64   63   64 1   
    65   63   67 1   
    66   63   68 1   
    67   64   65 2   
    68   64   69 1   
    69   69   70 1   
    70   69   76 1   
    71   70   71 1   
    72   70   73 1   
    73   70   77 1   
    74   71   72 2   
    75   71   83 1   
    76   73   74 1   
    77   73   75 1   
    78   73   78 1   
    79   74   80 1   
    80   74   81 1   
    81   74   82 1   
    82   75   79 1   
    83   83   84 1   
    84   83   91 1   
    85   84   85 1   
    86   84   87 1   
    87   84   92 1   
    88   85   86 2   
    89   85  102 1   
    90   87   88 1   
    91   87   89 1   
    92   87   93 1   
    93   88   90 1   
    94   88   94 1   
    95   88   95 1   
    96   89   96 1   
    97   89   97 1   
    98   89   98 1   
    99   90   99 1   
   100   90  100 1   
   101   90  101 1   
   102  102  103 1   
   103  102  110 1   
   104  103  104 1   
   105  103  106 1   
   106  103  111 1   
   107  104  105 2   
   108  104  114 1   
   109  106  107 1   
   110  106  112 1   
   111  106  113 1   
   112  107  108 1   
   113  107  109 1   
   114  114  115 1   
   115  114  125 1   
   116  115  116 1   
   117  115  118 1   
   118  115  126 1   
   119  116  117 2   
   120  116  134 1   
   121  118  119 1   
   122  118  127 1   
   123  118  128 1   
   124  119  120 ar  
   125  119  121 ar  
   126  120  122 ar  
   127  120  129 1   
   128  121  123 ar  
   129  121  130 1   
   130  122  124 ar  
   131  122  131 1   
   132  123  124 ar  
   133  123  132 1   
   134  124  133 1   
   135  134  135 1   
   136  134  140 1   
   137  135  136 1   
   138  135  138 1   
   139  135  141 1   
   140  136  137 2   
   141  136  148 1   
   142  138  139 1   
   143  138  142 1   
   144  138  143 1   
   145  139  140 1   
   146  139  144 1   
   147  139  145 1   
   148  140  146 1   
   149  140  147 1   
   150  148  149 1   
   151  148  157 1   
   152  149  150 1   
   153  149  152 1   
   154  149  158 1   
   155  150  151 2   
   156  150  163 1   
   157  152  153 1   
   158  152  159 1   
   159  152  160 1   
   160  153  154 1   
   161  153  161 1   
   162  153  162 1   
   163  154  155 1   
   164  154  156 1   
   165  163  164 1   
   166  163  168 1   
   167  164  165 1   
   168  164  166 1   
   169  164  167 1   
   170  170  171 1   
   171  170  172 1   
   172  173  174 1   
   173  173  175 1   
@<TRIPOS>SUBSTRUCTURE
     1 MOL         1 TEMP              0 ****  ****    0 ROOT
