@<TRIPOS>MOLECULE
MOL
  178   175     1     0     0
SMALL
resp


@<TRIPOS>ATOM
      1 C1          0.2480   -1.3090    5.9540 c3        1 MOL     -0.270171
      2 C2          0.1220   -1.3080    4.4310 c         1 MOL      0.785827
      3 O1         -0.7230   -2.0530    3.9520 o         1 MOL     -0.552822
      4 H1         -0.6490   -0.8730    6.3930 hc        1 MOL      0.055042
      5 H2          0.3640   -2.3330    6.3090 hc        1 MOL      0.055042
      6 H3          1.1180   -0.7220    6.2490 hc        1 MOL      0.055042
      7 N1          1.0790   -0.5730    3.8140 n         1 MOL     -0.570881
      8 C3          1.5170   -0.7380    2.4650 c3        1 MOL      0.022102
      9 C4          1.9140   -2.2080    2.2380 c         1 MOL      0.411284
     10 O2          2.6280   -2.7470    3.0540 o         1 MOL     -0.515562
     11 C5          2.7110    0.1980    2.2680 c3        1 MOL     -0.100125
     12 C6          3.4000    0.0670    0.8860 c         1 MOL      0.635724
     13 O3          2.8730   -0.7100    0.0120 o         1 MOL     -0.620819
     14 O4          4.4660    0.6360    0.6860 o         1 MOL     -0.620819
     15 H4          1.5570    0.0780    4.4200 hn        1 MOL      0.304785
     16 H5          0.7290   -0.5240    1.7470 h1        1 MOL      0.021177
     17 H6          3.4580   -0.2130    2.9560 hc        1 MOL      0.035041
     18 H7          2.4730    1.2310    2.4880 hc        1 MOL      0.035041
     19 N2          1.4790   -2.8670    1.1240 n         1 MOL     -0.066741
     20 C7          1.6290   -4.3140    0.8840 c3        1 MOL      0.003514
     21 C8          2.7390   -4.6820   -0.0720 c         1 MOL      0.550603
     22 O5          3.1020   -5.8680   -0.2560 o         1 MOL     -0.600576
     23 C9          0.2920   -4.8840    0.3510 c3        1 MOL     -0.198639
     24 H8          0.9490   -2.3190    0.4610 hn        1 MOL      0.136972
     25 H9          1.9880   -4.7650    1.8040 h1        1 MOL      0.068328
     26 H10        -0.4900   -4.6320    1.0690 hc        1 MOL      0.067064
     27 H11         0.0160   -4.4760   -0.6240 hc        1 MOL      0.067064
     28 H12         0.3490   -5.9530    0.1680 hc        1 MOL      0.067064
     29 N3          3.4400   -3.6930   -0.5920 n         1 MOL     -0.309058
     30 C10         4.8140   -3.9090   -1.1390 c3        1 MOL      0.051042
     31 C11         5.8660   -3.2290   -0.2990 c         1 MOL      0.273563
     32 O6          7.0830   -3.1550   -0.6310 o         1 MOL     -0.511286
     33 C12         4.8390   -3.4380   -2.6050 c3        1 MOL     -0.186714
     34 C13         4.2730   -2.0630   -2.7800 c         1 MOL      0.771105
     35 O7          3.0230   -1.8780   -2.9580 o         1 MOL     -0.730667
     36 O8          5.1240   -1.1500   -2.8160 o         1 MOL     -0.730667
     37 H13         3.1520   -2.7490   -0.3580 hn        1 MOL      0.073959
     38 H14         5.0240   -4.9770   -1.2500 h1        1 MOL      0.127651
     39 H15         4.2800   -4.1690   -3.1880 hc        1 MOL      0.049482
     40 H16         5.8470   -3.5130   -3.0230 hc        1 MOL      0.049482
     41 N4          5.5630   -2.7160    0.8820 n         1 MOL     -0.031023
     42 C14         6.4340   -2.2100    1.9770 c3        1 MOL     -0.299762
     43 C15         7.2850   -0.9220    1.7760 c         1 MOL      0.434017
     44 O9          8.0060   -0.4160    2.6820 o         1 MOL     -0.554270
     45 H17         4.5850   -2.7240    1.1310 hn        1 MOL      0.090696
     46 H18         7.0970   -2.9500    2.4300 h1        1 MOL      0.140119
     47 H19         5.6330   -1.9850    2.6820 h1        1 MOL      0.140119
     48 N5          7.2840   -0.4600    0.5540 n         1 MOL     -0.097613
     49 C16         8.0740    0.6560    0.1060 c3        1 MOL     -0.008381
     50 C17         7.7690    2.0080    0.8320 c         1 MOL      0.456381
     51 O10         8.6690    2.7860    1.1640 o         1 MOL     -0.566455
     52 C18         7.9500    0.7570   -1.4120 c3        1 MOL     -0.246501
     53 C19         8.7100   -0.3760   -2.0420 c         1 MOL      0.597099
     54 N6          8.2050   -1.1870   -2.9450 n         1 MOL     -0.670934
     55 O11         9.9080   -0.5150   -1.8390 o         1 MOL     -0.578440
     56 H20         6.6210   -0.9080   -0.0610 hn        1 MOL      0.315909
     57 H21         9.1330    0.4460    0.2940 h1        1 MOL      0.080883
     58 H22         8.3730    1.7280   -1.6930 hc        1 MOL      0.083423
     59 H23         6.8990    0.7440   -1.6670 hc        1 MOL      0.083423
     60 H24         7.3460   -0.9060   -3.4020 hn        1 MOL      0.329891
     61 H25         8.8290   -1.7680   -3.4830 hn        1 MOL      0.329891
     62 N7          6.5160    2.3690    1.2230 n         1 MOL     -0.074214
     63 C20         6.0610    3.6700    1.8660 c3        1 MOL     -0.138511
     64 C21         4.7380    4.2920    1.4230 c         1 MOL      0.550658
     65 O12         4.5670    5.5530    1.6430 o         1 MOL     -0.578944
     66 H26         5.7990    1.7370    0.8900 hn        1 MOL     -0.055852
     67 H27         6.7920    4.4440    1.6050 h1        1 MOL      0.089768
     68 H28         6.0540    3.5650    2.9490 h1        1 MOL      0.089768
     69 N8          3.8920    3.5380    0.7480 n         1 MOL     -0.492325
     70 C22         2.6850    4.0570    0.0930 c3        1 MOL      0.067245
     71 C23         1.5010    3.0720    0.2370 c         1 MOL      0.343199
     72 O13         1.5400    1.9810   -0.3400 o         1 MOL     -0.511157
     73 C24         2.8950    4.3620   -1.4360 c3        1 MOL      0.337809
     74 C25         1.7720    5.0960   -2.0810 c3        1 MOL     -0.149844
     75 O14         3.9790    5.1890   -1.6790 oh        1 MOL     -0.566888
     76 H29         4.0760    2.5370    0.7380 hn        1 MOL      0.379801
     77 H30         2.3700    4.9630    0.6010 h1        1 MOL      0.078995
     78 H31         2.8780    3.4330   -2.0150 h1        1 MOL      0.010922
     79 H32         3.9520    5.2440   -2.6410 ho        1 MOL      0.353678
     80 H33         0.7970    4.6090   -2.0640 hc        1 MOL      0.018778
     81 H34         1.6390    6.1020   -1.6970 hc        1 MOL      0.018778
     82 H35         2.0120    5.2090   -3.1360 hc        1 MOL      0.018778
     83 N9          0.3860    3.4890    0.8270 n         1 MOL     -0.259362
     84 C26        -0.8210    2.7040    1.0330 c3        1 MOL     -0.066180
     85 C27        -1.7580    2.9990   -0.1100 c         1 MOL      0.540536
     86 O15        -2.1100    4.1660   -0.2980 o         1 MOL     -0.602495
     87 C28        -1.5940    3.0720    2.4730 c3        1 MOL      0.157980
     88 C29        -0.6690    2.8230    3.7340 c3        1 MOL      0.238710
     89 C30        -2.9450    2.3130    2.7120 c3        1 MOL     -0.334128
     90 C31        -1.1960    3.5600    5.0260 c3        1 MOL     -0.111296
     91 H36         0.3040    4.4630    1.0660 hn        1 MOL      0.228360
     92 H37        -0.6410    1.6250    0.9940 h1        1 MOL      0.166971
     93 H38        -1.7780    4.1460    2.5040 hc        1 MOL     -0.003181
     94 H39         0.2650    3.3370    3.5070 hc        1 MOL     -0.091181
     95 H40        -0.5610    1.7600    3.9240 hc        1 MOL     -0.091181
     96 H41        -3.3360    2.3510    3.7310 hc        1 MOL      0.070415
     97 H42        -3.7310    2.6230    2.0120 hc        1 MOL      0.070415
     98 H43        -2.7430    1.2470    2.6160 hc        1 MOL      0.070415
     99 H44        -0.9940    4.6220    5.0820 hc        1 MOL      0.009941
    100 H45        -2.2760    3.4780    5.1420 hc        1 MOL      0.009941
    101 H46        -0.7030    3.0270    5.8380 hc        1 MOL      0.009941
    102 N10        -2.3430    1.9780   -0.7260 n         1 MOL     -0.200285
    103 C32        -3.5080    1.9180   -1.6630 c3        1 MOL     -0.047191
    104 C33        -4.8020    1.3860   -0.8910 c         1 MOL      0.699134
    105 O16        -4.7140    0.7530    0.1200 o         1 MOL     -0.469671
    106 C34        -3.1820    0.9170   -2.8400 c3        1 MOL     -0.221674
    107 C35        -1.9030    1.1810   -3.5770 c         1 MOL      0.795805
    108 O17        -1.8250    1.9410   -4.5560 o         1 MOL     -0.714995
    109 O18        -0.8940    0.5810   -3.1900 o         1 MOL     -0.714995
    110 H47        -1.8800    1.0880   -0.5890 hn        1 MOL      0.051231
    111 H48        -3.7210    2.8840   -2.1350 h1        1 MOL      0.085660
    112 H49        -3.9620    0.9950   -3.5860 hc        1 MOL      0.037094
    113 H50        -3.2070   -0.1480   -2.5940 hc        1 MOL      0.037094
    114 N11        -6.0120    1.7280   -1.3430 n         1 MOL     -0.795570
    115 C36        -7.2120    1.3200   -0.6010 c3        1 MOL      0.524582
    116 C37        -7.3660   -0.2140   -0.3490 c         1 MOL      0.119039
    117 O19        -7.8850   -0.6300    0.6950 o         1 MOL     -0.414185
    118 C38        -8.5350    1.9200   -1.2570 c3        1 MOL     -0.293587
    119 C39        -9.8940    1.5580   -0.6510 ca        1 MOL      0.019637
    120 C40       -10.2620    1.8280    0.6650 ca        1 MOL     -0.032901
    121 C41       -10.7790    0.8410   -1.4910 ca        1 MOL     -0.032901
    122 C42       -11.5280    1.5120    1.1610 ca        1 MOL     -0.246220
    123 C43       -12.0650    0.5110   -0.9900 ca        1 MOL     -0.246220
    124 C44       -12.4630    0.8170    0.3710 ca        1 MOL      0.003632
    125 H51        -6.1660    2.2790   -2.1730 hn        1 MOL      0.335731
    126 H52        -7.0570    1.8090    0.3610 h1        1 MOL      0.024774
    127 H53        -8.6200    1.6280   -2.3060 hc        1 MOL      0.085546
    128 H54        -8.4450    3.0070   -1.1840 hc        1 MOL      0.085546
    129 H55        -9.6490    2.4370    1.3150 ha        1 MOL      0.093794
    130 H56       -10.6360    0.7390   -2.5630 ha        1 MOL      0.093794
    131 H57       -11.8000    1.7280    2.1810 ha        1 MOL      0.138282
    132 H58       -12.6590   -0.1310   -1.6180 ha        1 MOL      0.138282
    133 H59       -13.4430    0.4750    0.6980 ha        1 MOL      0.084519
    134 N12        -6.9240   -1.1280   -1.2830 n         1 MOL     -0.032240
    135 C45        -6.8670   -2.5640   -1.0410 c3        1 MOL      0.112730
    136 C46        -5.9670   -2.9710    0.1460 c         1 MOL      0.241441
    137 O20        -6.3330   -3.9270    0.8680 o         1 MOL     -0.515286
    138 C47        -6.6150   -3.1960   -2.3810 c3        1 MOL      0.138285
    139 C48        -6.9420   -2.1690   -3.4340 c3        1 MOL     -0.246343
    140 C49        -6.5210   -0.8780   -2.6500 c3        1 MOL     -0.012433
    141 H60        -7.8870   -2.9140   -0.8660 h1        1 MOL      0.020273
    142 H61        -5.5390   -3.3550   -2.3560 hc        1 MOL     -0.014106
    143 H62        -7.1030   -4.1670   -2.5080 hc        1 MOL     -0.014106
    144 H63        -6.2940   -2.1920   -4.3030 hc        1 MOL      0.075488
    145 H64        -8.0060   -2.0070   -3.6180 hc        1 MOL      0.075488
    146 H65        -5.4440   -0.7200   -2.7070 h1        1 MOL      0.046471
    147 H66        -7.1240   -0.1670   -3.2060 h1        1 MOL      0.046471
    148 N13        -4.8420   -2.3350    0.2820 n         1 MOL     -0.179052
    149 C50        -3.8870   -2.5680    1.3790 c3        1 MOL     -0.014171
    150 C51        -4.4130   -2.0630    2.7410 c         1 MOL      0.365555
    151 O21        -3.8890   -2.4710    3.7930 o         1 MOL     -0.518528
    152 C52        -2.5740   -1.9480    0.9120 c3        1 MOL      0.075264
    153 C53        -2.2580   -2.2270   -0.5480 c3        1 MOL      0.038170
    154 C54        -0.8620   -1.6130   -0.9900 c         1 MOL      0.710396
    155 O22        -0.5340   -0.5470   -0.3830 o         1 MOL     -0.714035
    156 O23        -0.1580   -2.0940   -1.9150 o         1 MOL     -0.714035
    157 H67        -4.6460   -1.6460   -0.4270 hn        1 MOL      0.302652
    158 H68        -3.7670   -3.6400    1.5310 h1        1 MOL      0.087640
    159 H69        -1.7810   -2.4260    1.4780 hc        1 MOL     -0.002851
    160 H70        -2.6150   -0.8960    1.1860 hc        1 MOL     -0.002851
    161 H71        -3.0940   -1.7680   -1.0930 hc        1 MOL     -0.064503
    162 H72        -2.1570   -3.3070   -0.6350 hc        1 MOL     -0.064503
    163 N14        -5.2640   -1.0210    2.7010 n         1 MOL      0.011474
    164 C55        -5.8900   -0.5480    3.9310 c3        1 MOL     -0.154374
    165 H73        -6.9650   -0.4630    3.7810 h1        1 MOL      0.064767
    166 H74        -5.6910   -1.2570    4.7350 h1        1 MOL      0.064767
    167 H75        -5.4820    0.4270    4.1960 h1        1 MOL      0.064767
    168 H76        -5.6460   -0.6990    1.8280 hn        1 MOL      0.048592
    169 Ca1         1.4860   -0.0680   -2.0970 Ca        1 MOL      1.756745
    170 O24         1.1520   -0.5810   -4.7460 oh        1 MOL     -0.872656
    171 O25         0.9180    2.3770   -3.4390 oh        1 MOL     -0.872656
    172 H77         0.3930   -0.3780   -5.3090 ho        1 MOL      0.415030
    173 H78         0.9760    3.0780   -4.0970 ho        1 MOL      0.415030
    174 H79         1.5990   -1.3010   -5.2020 ho        1 MOL      0.415030
    175 H80        -0.0210    2.1900   -3.3710 ho        1 MOL      0.415030
    176 O26         4.1610    1.0940   -1.9160 oh        1 MOL     -0.872656
    177 H81         4.4410    1.0420   -1.0070 ho        1 MOL      0.415030
    178 H82         4.5090    0.2950   -2.3260 ho        1 MOL      0.415030
@<TRIPOS>BOND
     1    1    2 1   
     2    1    4 1   
     3    1    5 1   
     4    1    6 1   
     5    2    3 2   
     6    2    7 1   
     7    7    8 1   
     8    7   15 1   
     9    8    9 1   
    10    8   11 1   
    11    8   16 1   
    12    9   10 2   
    13    9   19 1   
    14   11   12 1   
    15   11   17 1   
    16   11   18 1   
    17   12   13 1   
    18   12   14 1   
    19   19   20 1   
    20   19   24 1   
    21   20   21 1   
    22   20   23 1   
    23   20   25 1   
    24   21   22 2   
    25   21   29 1   
    26   23   26 1   
    27   23   27 1   
    28   23   28 1   
    29   29   30 1   
    30   29   37 1   
    31   30   31 1   
    32   30   33 1   
    33   30   38 1   
    34   31   32 2   
    35   31   41 1   
    36   33   34 1   
    37   33   39 1   
    38   33   40 1   
    39   34   35 1   
    40   34   36 1   
    41   41   42 1   
    42   41   45 1   
    43   42   43 1   
    44   42   46 1   
    45   42   47 1   
    46   43   44 2   
    47   43   48 1   
    48   48   49 1   
    49   48   56 1   
    50   49   50 1   
    51   49   52 1   
    52   49   57 1   
    53   50   51 2   
    54   50   62 1   
    55   52   53 1   
    56   52   58 1   
    57   52   59 1   
    58   53   54 1   
    59   53   55 2   
    60   54   60 1   
    61   54   61 1   
    62   62   63 1   
    63   62   66 1   
    64   63   64 1   
    65   63   67 1   
    66   63   68 1   
    67   64   65 2   
    68   64   69 1   
    69   69   70 1   
    70   69   76 1   
    71   70   71 1   
    72   70   73 1   
    73   70   77 1   
    74   71   72 2   
    75   71   83 1   
    76   73   74 1   
    77   73   75 1   
    78   73   78 1   
    79   74   80 1   
    80   74   81 1   
    81   74   82 1   
    82   75   79 1   
    83   83   84 1   
    84   83   91 1   
    85   84   85 1   
    86   84   87 1   
    87   84   92 1   
    88   85   86 2   
    89   85  102 1   
    90   87   88 1   
    91   87   89 1   
    92   87   93 1   
    93   88   90 1   
    94   88   94 1   
    95   88   95 1   
    96   89   96 1   
    97   89   97 1   
    98   89   98 1   
    99   90   99 1   
   100   90  100 1   
   101   90  101 1   
   102  102  103 1   
   103  102  110 1   
   104  103  104 1   
   105  103  106 1   
   106  103  111 1   
   107  104  105 2   
   108  104  114 1   
   109  106  107 1   
   110  106  112 1   
   111  106  113 1   
   112  107  108 1   
   113  107  109 1   
   114  114  115 1   
   115  114  125 1   
   116  115  116 1   
   117  115  118 1   
   118  115  126 1   
   119  116  117 2   
   120  116  134 1   
   121  118  119 1   
   122  118  127 1   
   123  118  128 1   
   124  119  120 ar  
   125  119  121 ar  
   126  120  122 ar  
   127  120  129 1   
   128  121  123 ar  
   129  121  130 1   
   130  122  124 ar  
   131  122  131 1   
   132  123  124 ar  
   133  123  132 1   
   134  124  133 1   
   135  134  135 1   
   136  134  140 1   
   137  135  136 1   
   138  135  138 1   
   139  135  141 1   
   140  136  137 2   
   141  136  148 1   
   142  138  139 1   
   143  138  142 1   
   144  138  143 1   
   145  139  140 1   
   146  139  144 1   
   147  139  145 1   
   148  140  146 1   
   149  140  147 1   
   150  148  149 1   
   151  148  157 1   
   152  149  150 1   
   153  149  152 1   
   154  149  158 1   
   155  150  151 2   
   156  150  163 1   
   157  152  153 1   
   158  152  159 1   
   159  152  160 1   
   160  153  154 1   
   161  153  161 1   
   162  153  162 1   
   163  154  155 1   
   164  154  156 1   
   165  163  164 1   
   166  163  168 1   
   167  164  165 1   
   168  164  166 1   
   169  164  167 1   
   170  170  172 1   
   171  170  174 1   
   172  171  173 1   
   173  171  175 1   
   174  176  177 1   
   175  176  178 1   
@<TRIPOS>SUBSTRUCTURE
     1 MOL         1 TEMP              0 ****  ****    0 ROOT
