@<TRIPOS>MOLECULE
MOL
  186   183     1     0     0
SMALL
resp


@<TRIPOS>ATOM
      1 C1          1.4940   -2.1110    6.4080 c3        1 MOL     -0.268688
      2 C2          1.7120   -2.1040    4.8850 c         1 MOL      0.744740
      3 O1          0.7510   -2.2870    4.1310 o         1 MOL     -0.601579
      4 H1          2.0320   -2.9510    6.8480 hc        1 MOL      0.058995
      5 H2          1.8660   -1.1790    6.8330 hc        1 MOL      0.058995
      6 H3          0.4300   -2.2090    6.6220 hc        1 MOL      0.058995
      7 N1          2.9440   -1.9150    4.3740 n         1 MOL     -0.656410
      8 C3          3.2460   -1.7850    2.9640 c3        1 MOL      0.357426
      9 C4          3.6240   -3.1190    2.3200 c         1 MOL      0.345591
     10 O2          4.6360   -3.8230    2.7200 o         1 MOL     -0.558600
     11 C5          4.4220   -0.8120    2.8700 c3        1 MOL     -0.431856
     12 C6          4.9330   -0.5740    1.4320 c         1 MOL      0.856243
     13 O3          4.2500   -0.9230    0.4860 o         1 MOL     -0.650351
     14 O4          5.9890    0.0480    1.3420 o         1 MOL     -0.650351
     15 H4          3.6970   -1.7910    5.0430 hn        1 MOL      0.325172
     16 H5          2.4960   -1.1710    2.4570 h1        1 MOL      0.023376
     17 H6          5.2200   -1.1090    3.5580 hc        1 MOL      0.071125
     18 H7          4.1580    0.1700    3.2350 hc        1 MOL      0.071125
     19 N2          2.8250   -3.5920    1.3990 n         1 MOL     -0.177557
     20 C7          2.8800   -4.9890    0.8880 c3        1 MOL     -0.060619
     21 C8          3.9990   -5.0490   -0.3130 c         1 MOL      0.458979
     22 O5          4.8530   -5.9740   -0.2100 o         1 MOL     -0.563790
     23 C9          1.4800   -5.5790    0.5250 c3        1 MOL      0.166123
     24 C10         0.5300   -5.8450    1.7490 c3        1 MOL      0.142447
     25 C11         1.5330   -6.8900   -0.3220 c3        1 MOL     -0.334640
     26 C12        -0.9230   -6.1740    1.4540 c3        1 MOL      0.004300
     27 H8          2.2280   -2.8900    0.9940 hn        1 MOL      0.142648
     28 H9          3.2180   -5.7360    1.6160 h1        1 MOL      0.071541
     29 H10         1.0030   -4.7810   -0.0450 hc        1 MOL     -0.017336
     30 H11         0.5450   -4.8840    2.2510 hc        1 MOL     -0.040903
     31 H12         0.9330   -6.5500    2.4780 hc        1 MOL     -0.040903
     32 H13         1.7660   -7.7580    0.2810 hc        1 MOL      0.066102
     33 H14         0.5480   -7.0620   -0.7520 hc        1 MOL      0.066102
     34 H15         2.3410   -6.7350   -1.0400 hc        1 MOL      0.066102
     35 H16        -1.3730   -5.3910    0.8380 hc        1 MOL     -0.010789
     36 H17        -0.9160   -7.1540    0.9750 hc        1 MOL     -0.010789
     37 H18        -1.4060   -6.3250    2.4170 hc        1 MOL     -0.010789
     38 N3          3.9830   -4.1910   -1.3450 n         1 MOL     -0.283944
     39 C13         4.9970   -4.1550   -2.4530 c3        1 MOL     -0.127971
     40 C14         6.3020   -3.4240   -2.0980 c         1 MOL      0.545788
     41 O6          7.2700   -3.7450   -2.8040 o         1 MOL     -0.580899
     42 C15         4.3050   -3.4360   -3.6910 c3        1 MOL     -0.138162
     43 C16         3.3220   -2.2990   -3.3400 c         1 MOL      0.712925
     44 O7          2.4120   -2.1390   -4.1200 o         1 MOL     -0.673333
     45 O8          3.4280   -1.6290   -2.2730 o         1 MOL     -0.673333
     46 H19         3.4040   -3.3820   -1.1780 hn        1 MOL      0.233574
     47 H20         5.1810   -5.2020   -2.6820 h1        1 MOL      0.122936
     48 H21         3.7460   -4.2070   -4.2130 hc        1 MOL      0.050567
     49 H22         4.9970   -3.1190   -4.4740 hc        1 MOL      0.050567
     50 N4          6.3340   -2.5950   -1.0880 n         1 MOL     -0.208035
     51 C17         7.5730   -1.7400   -0.9430 c3        1 MOL     -0.162252
     52 C18         7.6280   -0.5190   -1.9100 c         1 MOL      0.542971
     53 O9          8.3590   -0.4770   -2.9710 o         1 MOL     -0.572704
     54 H23         5.4480   -2.3030   -0.6860 hn        1 MOL      0.212431
     55 H24         8.3990   -2.3750   -1.2800 h1        1 MOL      0.079102
     56 H25         7.6890   -1.4090    0.0900 h1        1 MOL      0.079102
     57 N5          6.8980    0.5260   -1.5340 n         1 MOL     -0.226479
     58 C19         6.9500    1.8790   -2.0980 c3        1 MOL      0.094475
     59 C20         7.1660    2.9430   -0.9620 c         1 MOL      0.513931
     60 O10         7.5420    4.0740   -1.2440 o         1 MOL     -0.586624
     61 C21         5.7220    2.1360   -3.0000 c3        1 MOL     -0.281370
     62 C22         4.3800    1.9840   -2.3190 c         1 MOL      0.728926
     63 O11         4.4010    2.0330   -1.0450 o         1 MOL     -0.717425
     64 O12         3.3480    1.6360   -2.8750 o         1 MOL     -0.717425
     65 H26         6.3340    0.4130   -0.7060 hn        1 MOL     -0.015186
     66 H27         7.9030    1.9250   -2.6290 h1        1 MOL      0.041469
     67 H28         5.8640    1.3820   -3.7800 hc        1 MOL      0.079420
     68 H29         5.7700    3.1270   -3.4440 hc        1 MOL      0.079420
     69 N6          7.0230    2.5110    0.2640 n         1 MOL     -0.388524
     70 C23         7.1270    3.4360    1.4010 c3        1 MOL      0.073432
     71 C24         5.8090    4.1800    1.8490 c         1 MOL      0.415463
     72 O13         5.9130    5.2250    2.4550 o         1 MOL     -0.564498
     73 H30         6.5040    1.6400    0.3750 hn        1 MOL      0.287205
     74 H31         7.9510    4.1390    1.3190 h1        1 MOL      0.037797
     75 H32         7.4430    2.8480    2.2540 h1        1 MOL      0.037797
     76 N7          4.6450    3.6930    1.3920 n         1 MOL     -0.035615
     77 C25         3.3560    4.2760    1.7090 c3        1 MOL     -0.208579
     78 C26         2.2170    3.2270    1.7130 c         1 MOL      0.808729
     79 O14         2.4050    2.1180    1.2300 o         1 MOL     -0.662378
     80 C27         3.1910    5.5070    0.7870 c3        1 MOL     -0.061853
     81 C28         2.8580    5.1440   -0.6670 c3        1 MOL     -0.061121
     82 C29         2.5120    6.4030   -1.4820 c         1 MOL      0.595356
     83 N8          3.4030    7.2890   -1.8480 n         1 MOL     -0.780608
     84 O15         1.3480    6.6660   -1.6610 o         1 MOL     -0.569082
     85 H33         4.5800    2.7150    1.1170 hn        1 MOL      0.104330
     86 H34         3.4760    4.5660    2.7510 h1        1 MOL      0.057980
     87 H35         4.0140    6.2160    0.8100 hc        1 MOL      0.050786
     88 H36         2.3980    6.1100    1.2390 hc        1 MOL      0.050786
     89 H37         1.9630    4.5210   -0.6190 hc        1 MOL      0.043295
     90 H38         3.6870    4.6040   -1.1180 hc        1 MOL      0.043295
     91 H39         4.3820    7.0390   -1.7950 hn        1 MOL      0.358175
     92 H40         3.0210    8.0510   -2.3750 hn        1 MOL      0.358175
     93 N9          1.0600    3.5770    2.2070 n         1 MOL     -0.643353
     94 C30        -0.1910    2.7800    2.2340 c3        1 MOL      0.363429
     95 C31        -1.2180    3.1690    1.1730 c         1 MOL      0.439152
     96 O16        -1.6900    4.2850    1.1930 o         1 MOL     -0.576695
     97 C32        -0.7770    2.7630    3.6180 c3        1 MOL     -0.001746
     98 C33        -2.3140    2.4030    3.7790 c3        1 MOL     -0.212403
     99 C34         0.0440    1.7750    4.5200 c3        1 MOL     -0.212403
    100 H41         0.9550    4.5500    2.4600 hn        1 MOL      0.301143
    101 H42         0.1070    1.7590    1.9720 h1        1 MOL      0.044902
    102 H43        -0.6940    3.7980    3.9270 hc        1 MOL      0.004764
    103 H44        -2.9550    3.2290    3.4680 hc        1 MOL      0.050050
    104 H45        -2.5780    1.5660    3.1320 hc        1 MOL      0.050050
    105 H46        -2.6700    2.1330    4.7830 hc        1 MOL      0.050050
    106 H47        -0.0440    0.7640    4.1380 hc        1 MOL      0.050050
    107 H48         1.0960    2.0540    4.5040 hc        1 MOL      0.050050
    108 H49        -0.3240    1.7550    5.5460 hc        1 MOL      0.050050
    109 N10        -1.6440    2.1760    0.3720 n         1 MOL     -0.142698
    110 C35        -2.8490    2.3430   -0.4890 c3        1 MOL      0.007153
    111 C36        -4.1720    1.8770    0.1760 c         1 MOL      0.348468
    112 O17        -4.1410    1.0770    1.1080 o         1 MOL     -0.320899
    113 C37        -2.5890    1.4860   -1.7560 c3        1 MOL     -0.276762
    114 C38        -3.7100    1.5880   -2.7900 c         1 MOL      0.615274
    115 N11        -4.0090    2.7610   -3.3120 n         1 MOL     -0.735371
    116 O18        -4.3680    0.5380   -3.0240 o         1 MOL     -0.481407
    117 H50        -1.1270    1.2980    0.3880 hn        1 MOL      0.173516
    118 H51        -2.9310    3.3830   -0.7990 h1        1 MOL      0.049153
    119 H52        -2.4580    0.4480   -1.4320 hc        1 MOL      0.110542
    120 H53        -1.6630    1.8570   -2.1970 hc        1 MOL      0.110542
    121 H54        -3.5730    3.6310   -3.0520 hn        1 MOL      0.352340
    122 H55        -4.8910    2.9250   -3.7830 hn        1 MOL      0.352340
    123 N12        -5.3270    2.3750   -0.2520 n         1 MOL     -0.408358
    124 C39        -6.5640    1.8800    0.2600 c3        1 MOL      0.227267
    125 C40        -6.6430    0.3090    0.1520 c         1 MOL      0.698954
    126 O19        -6.9140   -0.3490    1.1450 o         1 MOL     -0.600844
    127 C41        -7.7300    2.6780   -0.3690 c3        1 MOL     -0.344232
    128 C42        -9.0640    2.0770   -0.0150 ca        1 MOL      0.280941
    129 C43        -9.5440    2.1150    1.2920 ca        1 MOL     -0.423479
    130 C44        -9.8690    1.4750   -1.0100 ca        1 MOL     -0.423479
    131 C45       -10.7530    1.4940    1.6350 ca        1 MOL      0.030051
    132 C46       -11.1430    1.0270   -0.6650 ca        1 MOL      0.030051
    133 C47       -11.5960    1.0340    0.6080 ca        1 MOL      0.086949
    134 O20       -12.8460    0.4370    0.8800 oh        1 MOL     -0.482680
    135 H56        -5.3020    2.9130   -1.1010 hn        1 MOL      0.208780
    136 H57        -6.5200    2.1390    1.3180 h1        1 MOL      0.016991
    137 H58        -7.6060    2.6290   -1.4550 hc        1 MOL      0.105840
    138 H59        -7.6990    3.6990   -0.0010 hc        1 MOL      0.105840
    139 H60        -8.8740    2.4400    2.0680 ha        1 MOL      0.186541
    140 H61        -9.6290    1.4520   -2.0690 ha        1 MOL      0.186541
    141 H62       -11.1110    1.5080    2.6580 ha        1 MOL      0.087231
    142 H63       -11.8270    0.6200   -1.4000 ha        1 MOL      0.087231
    143 H64       -13.3720    0.5080    0.0760 ho        1 MOL      0.349347
    144 N13        -6.3430   -0.2720   -0.9600 n         1 MOL     -0.253515
    145 C48        -6.4870   -1.7660   -1.2000 c3        1 MOL     -0.274851
    146 C49        -5.4000   -2.5470   -0.4010 c         1 MOL      0.384324
    147 O21        -5.5520   -3.7720   -0.1870 o         1 MOL     -0.529013
    148 C50        -6.4220   -2.1520   -2.6900 c3        1 MOL      0.188507
    149 C51        -7.4500   -1.2660   -3.4030 c3        1 MOL     -0.010031
    150 C52        -7.8800   -1.7050   -4.7580 c         1 MOL      0.628201
    151 O22        -7.0700   -1.6070   -5.7000 o         1 MOL     -0.733961
    152 O23        -8.9480   -2.3780   -4.8040 o         1 MOL     -0.733961
    153 H65        -6.0860    0.3170   -1.7390 hn        1 MOL      0.189471
    154 H66        -7.4530   -2.0770   -0.8100 h1        1 MOL      0.168750
    155 H67        -6.5710   -3.2250   -2.8020 hc        1 MOL      0.007527
    156 H68        -5.4100   -1.8610   -2.9860 hc        1 MOL      0.007527
    157 H69        -7.0840   -0.2530   -3.5310 hc        1 MOL     -0.058868
    158 H70        -8.3990   -1.1580   -2.8900 hc        1 MOL     -0.058868
    159 N14        -4.3540   -1.8920    0.1130 n         1 MOL     -0.100589
    160 C53        -3.4400   -2.3870    1.2470 c3        1 MOL     -0.024918
    161 C54        -4.0130   -2.2250    2.6320 c         1 MOL      0.443887
    162 O24        -3.6910   -3.0570    3.4350 o         1 MOL     -0.576972
    163 C55        -2.0720   -1.7700    1.3130 c3        1 MOL     -0.030309
    164 C56        -1.1750   -2.2310    0.1230 c3        1 MOL     -0.057887
    165 C57         0.1080   -1.3760    0.1490 c         1 MOL      0.696815
    166 O25         1.2190   -1.9270   -0.1300 o         1 MOL     -0.734796
    167 O26         0.0910   -0.1060    0.1260 o         1 MOL     -0.734796
    168 H71        -4.2260   -0.9330   -0.1840 hn        1 MOL      0.084137
    169 H72        -3.2920   -3.4660    1.1980 h1        1 MOL      0.071080
    170 H73        -1.6140   -2.1530    2.2130 hc        1 MOL      0.047420
    171 H74        -2.2470   -0.6930    1.3430 hc        1 MOL      0.047420
    172 H75        -1.7360   -2.2010   -0.8180 hc        1 MOL      0.026379
    173 H76        -0.9950   -3.2750    0.3750 hc        1 MOL      0.026379
    174 N15        -4.8330   -1.2480    2.8950 n         1 MOL      0.022615
    175 C58        -5.4810   -0.9450    4.1760 c3        1 MOL     -0.331404
    176 H77        -5.0840   -1.6040    4.9480 h1        1 MOL      0.110601
    177 H78        -5.2840    0.0930    4.4470 h1        1 MOL      0.110601
    178 H79        -6.5560   -1.0990    4.0850 h1        1 MOL      0.110601
    179 H80        -5.0290   -0.5610    2.1830 hn        1 MOL      0.008864
    180 Ca1         2.4000    0.2910   -0.8370 Ca        1 MOL      1.723456
    181 O27         0.7910    2.3500   -1.8060 oh        1 MOL     -0.860986
    182 H81         0.3170    1.7980   -2.4230 ho        1 MOL      0.406101
    183 H82         1.3450    2.9020   -2.3600 ho        1 MOL      0.406101
    184 O28         0.8100   -0.1370   -3.3100 oh        1 MOL     -0.860986
    185 H83        -0.0220   -0.5730   -3.5000 ho        1 MOL      0.406101
    186 H84         1.4720   -0.7820   -3.5470 ho        1 MOL      0.406101
@<TRIPOS>BOND
     1    1    2 1   
     2    1    4 1   
     3    1    5 1   
     4    1    6 1   
     5    2    3 2   
     6    2    7 1   
     7    7    8 1   
     8    7   15 1   
     9    8    9 1   
    10    8   11 1   
    11    8   16 1   
    12    9   10 2   
    13    9   19 1   
    14   11   12 1   
    15   11   17 1   
    16   11   18 1   
    17   12   13 1   
    18   12   14 1   
    19   19   20 1   
    20   19   27 1   
    21   20   21 1   
    22   20   23 1   
    23   20   28 1   
    24   21   22 2   
    25   21   38 1   
    26   23   24 1   
    27   23   25 1   
    28   23   29 1   
    29   24   26 1   
    30   24   30 1   
    31   24   31 1   
    32   25   32 1   
    33   25   33 1   
    34   25   34 1   
    35   26   35 1   
    36   26   36 1   
    37   26   37 1   
    38   38   39 1   
    39   38   46 1   
    40   39   40 1   
    41   39   42 1   
    42   39   47 1   
    43   40   41 2   
    44   40   50 1   
    45   42   43 1   
    46   42   48 1   
    47   42   49 1   
    48   43   44 1   
    49   43   45 1   
    50   50   51 1   
    51   50   54 1   
    52   51   52 1   
    53   51   55 1   
    54   51   56 1   
    55   52   53 2   
    56   52   57 1   
    57   57   58 1   
    58   57   65 1   
    59   58   59 1   
    60   58   61 1   
    61   58   66 1   
    62   59   60 2   
    63   59   69 1   
    64   61   62 1   
    65   61   67 1   
    66   61   68 1   
    67   62   63 1   
    68   62   64 1   
    69   69   70 1   
    70   69   73 1   
    71   70   71 1   
    72   70   74 1   
    73   70   75 1   
    74   71   72 2   
    75   71   76 1   
    76   76   77 1   
    77   76   85 1   
    78   77   78 1   
    79   77   80 1   
    80   77   86 1   
    81   78   79 2   
    82   78   93 1   
    83   80   81 1   
    84   80   87 1   
    85   80   88 1   
    86   81   82 1   
    87   81   89 1   
    88   81   90 1   
    89   82   83 1   
    90   82   84 2   
    91   83   91 1   
    92   83   92 1   
    93   93   94 1   
    94   93  100 1   
    95   94   95 1   
    96   94   97 1   
    97   94  101 1   
    98   95   96 2   
    99   95  109 1   
   100   97   98 1   
   101   97   99 1   
   102   97  102 1   
   103   98  103 1   
   104   98  104 1   
   105   98  105 1   
   106   99  106 1   
   107   99  107 1   
   108   99  108 1   
   109  109  110 1   
   110  109  117 1   
   111  110  111 1   
   112  110  113 1   
   113  110  118 1   
   114  111  112 2   
   115  111  123 1   
   116  113  114 1   
   117  113  119 1   
   118  113  120 1   
   119  114  115 1   
   120  114  116 2   
   121  115  121 1   
   122  115  122 1   
   123  123  124 1   
   124  123  135 1   
   125  124  125 1   
   126  124  127 1   
   127  124  136 1   
   128  125  126 2   
   129  125  144 1   
   130  127  128 1   
   131  127  137 1   
   132  127  138 1   
   133  128  129 ar  
   134  128  130 ar  
   135  129  131 ar  
   136  129  139 1   
   137  130  132 ar  
   138  130  140 1   
   139  131  133 ar  
   140  131  141 1   
   141  132  133 ar  
   142  132  142 1   
   143  133  134 1   
   144  134  143 1   
   145  144  145 1   
   146  144  153 1   
   147  145  146 1   
   148  145  148 1   
   149  145  154 1   
   150  146  147 2   
   151  146  159 1   
   152  148  149 1   
   153  148  155 1   
   154  148  156 1   
   155  149  150 1   
   156  149  157 1   
   157  149  158 1   
   158  150  151 1   
   159  150  152 1   
   160  159  160 1   
   161  159  168 1   
   162  160  161 1   
   163  160  163 1   
   164  160  169 1   
   165  161  162 2   
   166  161  174 1   
   167  163  164 1   
   168  163  170 1   
   169  163  171 1   
   170  164  165 1   
   171  164  172 1   
   172  164  173 1   
   173  165  166 1   
   174  165  167 1   
   175  174  175 1   
   176  174  179 1   
   177  175  176 1   
   178  175  177 1   
   179  175  178 1   
   180  181  182 1   
   181  181  183 1   
   182  184  185 1   
   183  184  186 1   
@<TRIPOS>SUBSTRUCTURE
     1 MOL         1 TEMP              0 ****  ****    0 ROOT
