@<TRIPOS>MOLECULE
MOL
  179   176     1     0     0
SMALL
resp


@<TRIPOS>ATOM
      1 C1          0.5920    5.2540    4.4920 c3        1 MOL     -0.546426
      2 C2          0.2090    4.5390    3.2280 c         1 MOL      0.650292
      3 O1          0.9720    4.5880    2.2300 o         1 MOL     -0.566079
      4 H1          1.4740    4.7800    4.9240 hc        1 MOL      0.139334
      5 H2          0.8130    6.2970    4.2670 hc        1 MOL      0.139334
      6 H3         -0.2320    5.2010    5.2040 hc        1 MOL      0.139334
      7 N1         -0.9360    3.8660    3.2100 n         1 MOL     -0.360959
      8 C3         -1.4480    3.2280    1.9890 c3        1 MOL      0.009064
      9 C4         -2.2940    4.1870    1.1760 c         1 MOL      0.362524
     10 O2         -3.4750    4.4900    1.4790 o         1 MOL     -0.488002
     11 C5         -2.2710    2.0040    2.4870 c3        1 MOL     -0.163600
     12 C6         -2.7920    0.9640    1.4110 c         1 MOL      0.840524
     13 O3         -2.2010    0.9000    0.3160 o         1 MOL     -0.789667
     14 O4         -3.8130    0.2850    1.6990 o         1 MOL     -0.789667
     15 H4         -1.4950    3.8610    4.0460 hn        1 MOL      0.276723
     16 H5         -0.5860    2.9650    1.3750 h1        1 MOL      0.064922
     17 H6         -3.1470    2.3830    3.0030 hc        1 MOL      0.038207
     18 H7         -1.7730    1.3550    3.2030 hc        1 MOL      0.038207
     19 N2         -1.5890    4.7480    0.2320 n         1 MOL     -0.315953
     20 C7         -2.1190    5.9630   -0.4020 c3        1 MOL     -0.041884
     21 C8         -3.1460    5.7370   -1.4420 c         1 MOL      0.370985
     22 O5         -3.9780    6.5950   -1.6660 o         1 MOL     -0.533837
     23 C9         -0.9060    6.6780   -0.9700 c3        1 MOL     -0.140430
     24 C10         0.2900    6.9940   -0.0520 c3        1 MOL     -0.129226
     25 C11        -0.0580    8.0490    1.0090 c3        1 MOL     -0.143640
     26 C12         1.1480    8.4670    1.8870 c3        1 MOL     -0.030020
     27 N3          0.6730    9.5500    2.7390 n4        1 MOL     -0.254185
     28 H8         -0.6790    4.4860   -0.1000 hn        1 MOL      0.393177
     29 H9         -2.5760    6.5350    0.4140 h1        1 MOL      0.118548
     30 H10        -1.2610    7.5920   -1.4330 hc        1 MOL      0.079414
     31 H11        -0.4000    6.1050   -1.7390 hc        1 MOL      0.079414
     32 H12         1.0270    7.5260   -0.6390 hc        1 MOL      0.086440
     33 H13         0.7480    6.0610    0.2840 hc        1 MOL      0.086440
     34 H14        -0.9340    7.7930    1.6030 hc        1 MOL      0.072896
     35 H15        -0.4140    8.9620    0.5320 hc        1 MOL      0.072896
     36 H16         1.8550    8.8400    1.1550 hx        1 MOL      0.111458
     37 H17         1.5130    7.6660    2.5360 hx        1 MOL      0.111458
     38 H18         1.4440   10.0390    3.1750 hn        1 MOL      0.298312
     39 H19         0.1190   10.1850    2.1790 hn        1 MOL      0.298312
     40 H20         0.1160    9.2770    3.5350 hn        1 MOL      0.298312
     41 N4         -3.2400    4.5180   -1.9840 n         1 MOL     -0.156466
     42 C13        -4.0580    3.9080   -3.0230 c3        1 MOL     -0.041022
     43 C14        -5.1900    3.2010   -2.2480 c         1 MOL      0.427824
     44 O6         -6.1420    2.7370   -2.9090 o         1 MOL     -0.535204
     45 C15        -3.3610    2.8520   -3.9370 c3        1 MOL     -0.212648
     46 C16        -2.5710    1.8810   -3.1190 c         1 MOL      0.826036
     47 O7         -2.6640    0.6460   -3.2470 o         1 MOL     -0.770479
     48 O8         -1.6620    2.3760   -2.3940 o         1 MOL     -0.770479
     49 H21        -2.4130    3.9590   -1.8070 hn        1 MOL      0.162893
     50 H22        -4.5170    4.6840   -3.6350 h1        1 MOL      0.104077
     51 H23        -2.7660    3.2440   -4.7550 hc        1 MOL      0.073508
     52 H24        -4.1480    2.3060   -4.4510 hc        1 MOL      0.073508
     53 N5         -5.0310    2.9240   -0.9230 n         1 MOL     -0.184338
     54 C17        -6.1860    2.4460   -0.1140 c3        1 MOL     -0.171539
     55 C18        -6.5670    0.9330   -0.2200 c         1 MOL      0.516232
     56 O9         -7.6230    0.5690    0.3270 o         1 MOL     -0.558411
     57 H25        -4.2370    3.2680   -0.4010 hn        1 MOL      0.223323
     58 H26        -7.1070    2.8720   -0.5130 h1        1 MOL      0.106352
     59 H27        -6.1070    2.8920    0.8860 h1        1 MOL      0.106352
     60 N6         -5.7080    0.1220   -0.8790 n         1 MOL     -0.197018
     61 C19        -6.1550   -1.2020   -1.3430 c3        1 MOL     -0.065308
     62 C20        -6.3180   -2.1970   -0.2020 c         1 MOL      0.283894
     63 O10        -6.8210   -3.3280   -0.3700 o         1 MOL     -0.492945
     64 C21        -5.3240   -1.7030   -2.5350 c3        1 MOL     -0.232879
     65 C22        -3.8760   -2.1560   -2.2830 c         1 MOL      0.538222
     66 N7         -3.3770   -2.9980   -3.1570 n         1 MOL     -0.694376
     67 O11        -3.2210   -1.6830   -1.4170 o         1 MOL     -0.447705
     68 H28        -4.7700    0.5000   -0.9350 hn        1 MOL      0.147182
     69 H29        -7.1910   -1.1060   -1.6830 h1        1 MOL      0.131007
     70 H30        -5.3390   -0.9050   -3.2850 hc        1 MOL      0.097416
     71 H31        -5.9360   -2.5150   -2.9380 hc        1 MOL      0.097416
     72 H32        -3.9100   -3.2070   -3.9890 hn        1 MOL      0.336644
     73 H33        -2.4310   -3.3180   -3.0140 hn        1 MOL      0.336644
     74 N8         -5.7950   -1.8380    0.9640 n         1 MOL     -0.001374
     75 C23        -5.7850   -2.6080    2.1610 c3        1 MOL     -0.380131
     76 C24        -4.4400   -3.2910    2.3460 c         1 MOL      0.727148
     77 O12        -4.3040   -4.1130    3.2840 o         1 MOL     -0.594969
     78 H34        -5.3140   -0.9490    0.9180 hn        1 MOL      0.220944
     79 H35        -6.6440   -3.2720    2.1220 h1        1 MOL      0.149623
     80 H36        -5.8900   -1.9270    2.9980 h1        1 MOL      0.149623
     81 N9         -3.4280   -3.0120    1.4760 n         1 MOL     -0.657579
     82 C25        -2.1000   -3.6400    1.5270 c3        1 MOL      0.254803
     83 C26        -0.7910   -2.7470    1.2750 c         1 MOL      0.602129
     84 O13        -0.8650   -1.7860    0.4750 o         1 MOL     -0.680408
     85 C27        -2.0240   -4.8760    0.6190 c3        1 MOL      0.059444
     86 C28        -3.1080   -5.9250    0.7370 ca        1 MOL      0.033592
     87 C29        -4.2620   -5.7610   -0.1080 ca        1 MOL     -0.162751
     88 C30        -2.9770   -7.1020    1.5300 ca        1 MOL     -0.162751
     89 C31        -5.2730   -6.7330   -0.1170 ca        1 MOL     -0.302643
     90 C32        -4.1050   -7.9470    1.5860 ca        1 MOL     -0.302643
     91 C33        -5.2580   -7.7410    0.8070 ca        1 MOL      0.427513
     92 O14        -6.2700   -8.6520    0.8760 oh        1 MOL     -0.490488
     93 H37        -3.6970   -2.4360    0.6890 hn        1 MOL      0.489694
     94 H38        -1.8510   -4.0040    2.5280 h1        1 MOL     -0.004876
     95 H39        -1.0850   -5.3910    0.8120 hc        1 MOL     -0.042746
     96 H40        -2.0310   -4.4850   -0.4010 hc        1 MOL     -0.042746
     97 H41        -4.2960   -4.9100   -0.7710 ha        1 MOL      0.131228
     98 H42        -2.1860   -7.3260    2.2290 ha        1 MOL      0.131228
     99 H43        -6.1320   -6.7110   -0.7680 ha        1 MOL      0.155178
    100 H44        -4.0790   -8.7660    2.2880 ha        1 MOL      0.155178
    101 H45        -6.0870   -9.2300    1.6270 ho        1 MOL      0.335027
    102 N10         0.3310   -2.9750    1.9950 n         1 MOL     -0.607491
    103 C34         1.6620   -2.4310    1.7880 c3        1 MOL      0.054652
    104 C35         2.7620   -3.4370    1.2760 c         1 MOL      0.527768
    105 O15         3.1890   -4.3900    1.9660 o         1 MOL     -0.544909
    106 C36         1.9510   -1.5550    3.0250 c3        1 MOL     -0.099786
    107 C37         1.0960   -0.2050    3.1180 c3        1 MOL      0.091700
    108 C38         3.4850   -1.0230    2.9130 c3        1 MOL     -0.042924
    109 C39         1.3590    0.5740    4.4120 c3        1 MOL     -0.175989
    110 H46         0.3140   -3.7190    2.6780 hn        1 MOL      0.340807
    111 H47         1.5420   -1.6520    1.0320 h1        1 MOL      0.103497
    112 H48         1.7550   -2.0670    3.9660 hc        1 MOL      0.064053
    113 H49         0.0370   -0.4130    3.0350 hc        1 MOL      0.039235
    114 H50         1.3050    0.4460    2.2690 hc        1 MOL      0.039235
    115 H51         4.1610   -1.8280    3.2130 hc        1 MOL      0.008715
    116 H52         3.6680   -0.6120    1.9200 hc        1 MOL      0.008715
    117 H53         3.6610   -0.2640    3.6650 hc        1 MOL      0.008715
    118 H54         1.4760   -0.1290    5.2310 hc        1 MOL      0.037905
    119 H55         2.2650    1.1780    4.3260 hc        1 MOL      0.037905
    120 H56         0.4850    1.2030    4.5720 hc        1 MOL      0.037905
    121 N11         3.3550   -3.2180    0.0920 n         1 MOL     -0.363714
    122 C40         4.5900   -3.7800   -0.4640 c3        1 MOL     -0.028040
    123 C41         5.7820   -3.1070    0.2370 c         1 MOL      0.512839
    124 O16         5.6610   -1.9900    0.7200 o         1 MOL     -0.384984
    125 C42         4.6410   -3.5140   -1.9730 c3        1 MOL     -0.174849
    126 O17         5.0330   -2.1770   -2.3400 oh        1 MOL     -0.372470
    127 H57         2.9400   -2.3920   -0.3140 hn        1 MOL      0.250079
    128 H58         4.5870   -4.8730   -0.3490 h1        1 MOL      0.112280
    129 H59         3.6080   -3.6990   -2.2670 h1        1 MOL      0.108227
    130 H60         5.2540   -4.1640   -2.5910 h1        1 MOL      0.108227
    131 H61         5.1400   -2.1280   -3.2940 ho        1 MOL      0.353215
    132 N12         6.9360   -3.7460    0.1580 n         1 MOL     -0.474261
    133 C43         8.1420   -2.9870    0.5980 c3        1 MOL      0.216722
    134 C44         8.5030   -1.7780   -0.2380 c         1 MOL      0.479244
    135 O18         9.0090   -0.8420    0.3580 o         1 MOL     -0.535762
    136 C45         9.3570   -3.9430    0.7230 c3        1 MOL     -0.414861
    137 H62         6.9740   -4.7330   -0.0480 hn        1 MOL      0.288561
    138 H63         7.9520   -2.5200    1.5580 h1        1 MOL      0.054089
    139 H64         9.8850   -4.2640   -0.1830 hc        1 MOL      0.120076
    140 H65        10.1400   -3.3910    1.2430 hc        1 MOL      0.120076
    141 H66         9.0260   -4.7340    1.3820 hc        1 MOL      0.120076
    142 N13         8.1610   -1.7960   -1.4890 n         1 MOL     -0.377465
    143 C46         8.5290   -0.7760   -2.4050 c3        1 MOL      0.298510
    144 C47         7.8160    0.5590   -2.1060 c         1 MOL      0.238773
    145 O19         8.3820    1.6830   -2.2480 o         1 MOL     -0.511465
    146 C48         8.2110   -1.2090   -3.7900 c3        1 MOL     -0.333066
    147 H67         7.8170   -2.7030   -1.7710 hn        1 MOL      0.221024
    148 H68         9.5980   -0.5490   -2.3170 h1        1 MOL      0.044883
    149 H69         7.3340   -1.8570   -3.7650 hc        1 MOL      0.085034
    150 H70         7.9860   -0.3870   -4.4580 hc        1 MOL      0.085034
    151 H71         9.0090   -1.8440   -4.2010 hc        1 MOL      0.085034
    152 N14         6.5950    0.4720   -1.6280 n         1 MOL      0.020033
    153 C49         5.8050    1.6210   -1.1680 c3        1 MOL     -0.105102
    154 C50         6.2120    1.9540    0.2150 c         1 MOL      0.564067
    155 O20         6.1720    3.1310    0.4580 o         1 MOL     -0.571004
    156 C51         4.2820    1.4700   -1.4620 c3        1 MOL     -0.007451
    157 C52         3.4310    0.7450   -0.4040 c3        1 MOL     -0.013311
    158 C53         2.0570    0.4530   -0.8770 c         1 MOL      0.649088
    159 O21         1.1070    1.2490   -0.6020 o         1 MOL     -0.751782
    160 O22         1.7500   -0.6540   -1.4470 o         1 MOL     -0.751782
    161 H72         6.1350   -0.4160   -1.5270 hn        1 MOL     -0.062869
    162 H73         6.0710    2.4790   -1.7810 h1        1 MOL      0.104075
    163 H74         4.1020    1.0490   -2.4440 hc        1 MOL      0.021792
    164 H75         3.8630    2.4730   -1.5090 hc        1 MOL      0.021792
    165 H76         3.3800    1.2250    0.5730 hc        1 MOL      0.034256
    166 H77         3.8520   -0.2470   -0.2010 hc        1 MOL      0.034256
    167 N15         6.5250    1.0040    1.1270 n         1 MOL     -0.210988
    168 C54         6.9050    1.3630    2.5730 c3        1 MOL     -0.241882
    169 H78         7.8110    0.8260    2.8540 h1        1 MOL      0.106689
    170 H79         7.0820    2.4360    2.6470 h1        1 MOL      0.106689
    171 H80         6.0930    1.0800    3.2430 h1        1 MOL      0.106689
    172 H81         6.4260    0.0180    0.9220 hn        1 MOL      0.190717
    173 Ca1        -1.0020   -0.2280   -1.5500 Ca        1 MOL      1.750359
    174 O23        -0.5150   -2.6890   -2.7500 oh        1 MOL     -0.782031
    175 H82        -0.1720   -2.8150   -3.6360 ho        1 MOL      0.393011
    176 H83        -0.0410   -3.3310   -2.2190 ho        1 MOL      0.393011
    177 O24         0.1190   -0.2130   -4.1450 oh        1 MOL     -0.782031
    178 H84         0.9510   -0.6190   -4.4130 ho        1 MOL      0.393011
    179 H85        -0.1920    0.2300   -4.9290 ho        1 MOL      0.393011
@<TRIPOS>BOND
     1    1    2 1   
     2    1    4 1   
     3    1    5 1   
     4    1    6 1   
     5    2    3 2   
     6    2    7 1   
     7    7    8 1   
     8    7   15 1   
     9    8    9 1   
    10    8   11 1   
    11    8   16 1   
    12    9   10 2   
    13    9   19 1   
    14   11   12 1   
    15   11   17 1   
    16   11   18 1   
    17   12   13 1   
    18   12   14 1   
    19   19   20 1   
    20   19   28 1   
    21   20   21 1   
    22   20   23 1   
    23   20   29 1   
    24   21   22 2   
    25   21   41 1   
    26   23   24 1   
    27   23   30 1   
    28   23   31 1   
    29   24   25 1   
    30   24   32 1   
    31   24   33 1   
    32   25   26 1   
    33   25   34 1   
    34   25   35 1   
    35   26   27 1   
    36   26   36 1   
    37   26   37 1   
    38   27   38 1   
    39   27   39 1   
    40   27   40 1   
    41   41   42 1   
    42   41   49 1   
    43   42   43 1   
    44   42   45 1   
    45   42   50 1   
    46   43   44 2   
    47   43   53 1   
    48   45   46 1   
    49   45   51 1   
    50   45   52 1   
    51   46   47 1   
    52   46   48 1   
    53   53   54 1   
    54   53   57 1   
    55   54   55 1   
    56   54   58 1   
    57   54   59 1   
    58   55   56 2   
    59   55   60 1   
    60   60   61 1   
    61   60   68 1   
    62   61   62 1   
    63   61   64 1   
    64   61   69 1   
    65   62   63 2   
    66   62   74 1   
    67   64   65 1   
    68   64   70 1   
    69   64   71 1   
    70   65   66 1   
    71   65   67 2   
    72   66   72 1   
    73   66   73 1   
    74   74   75 1   
    75   74   78 1   
    76   75   76 1   
    77   75   79 1   
    78   75   80 1   
    79   76   77 2   
    80   76   81 1   
    81   81   82 1   
    82   81   93 1   
    83   82   83 1   
    84   82   85 1   
    85   82   94 1   
    86   83   84 2   
    87   83  102 1   
    88   85   86 1   
    89   85   95 1   
    90   85   96 1   
    91   86   87 ar  
    92   86   88 ar  
    93   87   89 ar  
    94   87   97 1   
    95   88   90 ar  
    96   88   98 1   
    97   89   91 ar  
    98   89   99 1   
    99   90   91 ar  
   100   90  100 1   
   101   91   92 1   
   102   92  101 1   
   103  102  103 1   
   104  102  110 1   
   105  103  104 1   
   106  103  106 1   
   107  103  111 1   
   108  104  105 2   
   109  104  121 1   
   110  106  107 1   
   111  106  108 1   
   112  106  112 1   
   113  107  109 1   
   114  107  113 1   
   115  107  114 1   
   116  108  115 1   
   117  108  116 1   
   118  108  117 1   
   119  109  118 1   
   120  109  119 1   
   121  109  120 1   
   122  121  122 1   
   123  121  127 1   
   124  122  123 1   
   125  122  125 1   
   126  122  128 1   
   127  123  124 2   
   128  123  132 1   
   129  125  126 1   
   130  125  129 1   
   131  125  130 1   
   132  126  131 1   
   133  132  133 1   
   134  132  137 1   
   135  133  134 1   
   136  133  136 1   
   137  133  138 1   
   138  134  135 2   
   139  134  142 1   
   140  136  139 1   
   141  136  140 1   
   142  136  141 1   
   143  142  143 1   
   144  142  147 1   
   145  143  144 1   
   146  143  146 1   
   147  143  148 1   
   148  144  145 2   
   149  144  152 1   
   150  146  149 1   
   151  146  150 1   
   152  146  151 1   
   153  152  153 1   
   154  152  161 1   
   155  153  154 1   
   156  153  156 1   
   157  153  162 1   
   158  154  155 2   
   159  154  167 1   
   160  156  157 1   
   161  156  163 1   
   162  156  164 1   
   163  157  158 1   
   164  157  165 1   
   165  157  166 1   
   166  158  159 1   
   167  158  160 1   
   168  167  168 1   
   169  167  172 1   
   170  168  169 1   
   171  168  170 1   
   172  168  171 1   
   173  174  175 1   
   174  174  176 1   
   175  177  178 1   
   176  177  179 1   
@<TRIPOS>SUBSTRUCTURE
     1 MOL         1 TEMP              0 ****  ****    0 ROOT
