@<TRIPOS>MOLECULE
MOL
  175   173     1     0     0
SMALL
resp


@<TRIPOS>ATOM
      1 C1          0.3750    4.1330    5.3460 c3        1 MOL     -0.447402
      2 C2         -0.2020    3.8600    3.9500 c         1 MOL      0.793004
      3 O1          0.4720    3.7890    2.9480 o         1 MOL     -0.578632
      4 H1          1.3850    4.5340    5.2490 hc        1 MOL      0.111282
      5 H2         -0.2540    4.8570    5.8650 hc        1 MOL      0.111282
      6 H3          0.4070    3.2050    5.9160 hc        1 MOL      0.111282
      7 N1         -1.5000    3.6230    3.8470 n         1 MOL     -0.763588
      8 C3         -2.2100    3.4100    2.6000 c3        1 MOL      0.344423
      9 C4         -2.3070    4.6650    1.6960 c         1 MOL      0.561235
     10 O2         -2.5320    5.7680    2.1910 o         1 MOL     -0.584526
     11 C5         -3.6810    2.9710    2.8700 c3        1 MOL     -0.357023
     12 C6         -4.4580    2.4090    1.6940 c         1 MOL      0.858818
     13 O3         -5.7010    2.3150    1.7440 o         1 MOL     -0.717146
     14 O4         -3.8800    1.9470    0.6890 o         1 MOL     -0.717146
     15 H4         -2.0850    3.6470    4.6680 hn        1 MOL      0.342568
     16 H5         -1.7230    2.5970    2.0540 h1        1 MOL      0.074478
     17 H6         -4.2810    3.7100    3.4080 hc        1 MOL      0.053712
     18 H7         -3.6160    2.1230    3.5490 hc        1 MOL      0.053712
     19 N2         -2.1530    4.4450    0.4020 n         1 MOL     -0.551841
     20 C7         -2.4500    5.4620   -0.5860 c3        1 MOL      0.400322
     21 C8         -3.3560    4.9860   -1.6970 c         1 MOL      0.286834
     22 O5         -3.4820    5.7010   -2.7080 o         1 MOL     -0.543218
     23 C9         -1.2140    6.0850   -1.1050 c3        1 MOL     -0.235716
     24 H8         -1.8670    3.5540    0.0340 hn        1 MOL      0.288750
     25 H9         -2.9370    6.3120   -0.1050 h1        1 MOL      0.003296
     26 H10        -0.4670    6.3000   -0.3440 hc        1 MOL      0.054659
     27 H11        -0.6410    5.4430   -1.7720 hc        1 MOL      0.054659
     28 H12        -1.4190    7.0160   -1.6300 hc        1 MOL      0.054659
     29 N3         -3.9750    3.7620   -1.7470 n         1 MOL     -0.129734
     30 C10        -4.9030    3.3940   -2.7920 c3        1 MOL     -0.047225
     31 C11        -6.2070    2.6130   -2.3870 c         1 MOL      0.355721
     32 O6         -7.1280    2.3650   -3.1330 o         1 MOL     -0.546072
     33 C12        -4.1160    2.5790   -3.8780 c3        1 MOL     -0.031676
     34 C13        -3.2120    1.4510   -3.2630 c         1 MOL      0.672605
     35 O7         -2.3770    0.9970   -4.0020 o         1 MOL     -0.666520
     36 O8         -3.4170    0.9520   -2.0940 o         1 MOL     -0.666520
     37 H13        -3.9110    3.2190   -0.8930 hn        1 MOL      0.079245
     38 H14        -5.2570    4.3010   -3.2770 h1        1 MOL      0.085521
     39 H15        -3.4910    3.3550   -4.3170 hc        1 MOL      0.015895
     40 H16        -4.7150    2.1840   -4.7090 hc        1 MOL      0.015895
     41 N4         -6.2600    2.1030   -1.1600 n         1 MOL     -0.068149
     42 C14        -7.2260    1.2160   -0.6240 c3        1 MOL     -0.222322
     43 C15        -7.1420   -0.2330   -1.1680 c         1 MOL      0.615160
     44 O9         -8.1380   -0.9350   -1.1220 o         1 MOL     -0.651093
     45 H17        -5.4650    2.3000   -0.5620 hn        1 MOL      0.101649
     46 H18        -8.2150    1.6140   -0.8120 h1        1 MOL      0.112519
     47 H19        -7.2370    1.1360    0.4650 h1        1 MOL      0.112519
     48 N5         -5.9930   -0.7620   -1.6620 n         1 MOL     -0.306002
     49 C16        -5.8390   -2.0940   -2.2530 c3        1 MOL      0.043749
     50 C17        -5.8730   -3.2310   -1.2580 c         1 MOL      0.403526
     51 O10        -5.3950   -4.3230   -1.5920 o         1 MOL     -0.494741
     52 C18        -4.6920   -2.1730   -3.3200 c3        1 MOL     -0.219239
     53 C19        -3.3770   -2.2580   -2.6740 c         1 MOL      0.599116
     54 N6         -2.3910   -2.6000   -3.4930 n         1 MOL     -0.606023
     55 O11        -3.2310   -2.1030   -1.4900 o         1 MOL     -0.649199
     56 H20        -5.2220   -0.1230   -1.8050 hn        1 MOL      0.173237
     57 H21        -6.6990   -2.3140   -2.8950 h1        1 MOL      0.091289
     58 H22        -4.5740   -1.3010   -3.9690 hc        1 MOL      0.076311
     59 H23        -4.7490   -3.0200   -3.9990 hc        1 MOL      0.076311
     60 H24        -2.6100   -2.7000   -4.4730 hn        1 MOL      0.314780
     61 H25        -1.4180   -2.4630   -3.2290 hn        1 MOL      0.314780
     62 N7         -6.2700   -3.0140    0.0100 n         1 MOL     -0.245621
     63 C20        -6.2340   -3.9590    1.1680 c3        1 MOL     -0.443902
     64 C21        -4.9340   -4.6040    1.5980 c         1 MOL      0.592139
     65 O12        -4.9490   -5.5230    2.3910 o         1 MOL     -0.584283
     66 H26        -6.6630   -2.1240    0.2610 hn        1 MOL      0.292644
     67 H27        -6.9280   -4.7660    0.9450 h1        1 MOL      0.178199
     68 H28        -6.5550   -3.3160    1.9970 h1        1 MOL      0.178199
     69 N8         -3.7650   -4.1850    1.0640 n         1 MOL     -0.190058
     70 C22        -2.4010   -4.6200    1.4370 c3        1 MOL     -0.058997
     71 C23        -1.3690   -3.4310    1.6480 c         1 MOL      0.143364
     72 O13        -1.5930   -2.3370    1.0820 o         1 MOL     -0.235661
     73 C24        -1.8290   -5.5660    0.3050 c3        1 MOL      0.634996
     74 C25        -2.6300   -6.8130    0.0910 c3        1 MOL     -0.377717
     75 O14        -1.5340   -4.9120   -0.9320 oh        1 MOL     -0.626321
     76 H29        -3.7860   -3.4780    0.3370 hn        1 MOL      0.181188
     77 H30        -2.5020   -5.1730    2.3670 h1        1 MOL      0.058280
     78 H31        -0.9280   -6.0400    0.6760 h1        1 MOL     -0.099715
     79 H32        -1.2640   -4.0020   -0.7860 ho        1 MOL      0.348275
     80 H33        -2.5860   -7.3670    1.0240 hc        1 MOL      0.082794
     81 H34        -3.6950   -6.6030   -0.0650 hc        1 MOL      0.082794
     82 H35        -2.3030   -7.3580   -0.7880 hc        1 MOL      0.082794
     83 N9         -0.3030   -3.5660    2.4780 n         1 MOL     -0.236735
     84 C26         0.8480   -2.6830    2.3250 c3        1 MOL      0.009476
     85 C27         1.6440   -3.0320    1.0910 c         1 MOL      0.414339
     86 O15         2.0590   -4.1890    0.8520 o         1 MOL     -0.554261
     87 C28         1.6370   -2.7770    3.5810 c3        1 MOL      0.107205
     88 C29         1.0610   -1.8200    4.5670 c3        1 MOL      0.131021
     89 C30         3.1560   -2.3940    3.5040 c3        1 MOL     -0.431607
     90 C31         1.3260   -2.0910    6.0290 c3        1 MOL     -0.129286
     91 H36        -0.1140   -4.4870    2.8220 hn        1 MOL      0.234268
     92 H37         0.5540   -1.6300    2.3550 h1        1 MOL     -0.055527
     93 H38         1.5450   -3.7800    4.0030 hc        1 MOL      0.014747
     94 H39         0.0060   -2.0920    4.5140 hc        1 MOL     -0.020332
     95 H40         1.2470   -0.7550    4.3880 hc        1 MOL     -0.020332
     96 H41         3.6440   -3.0560    2.7870 hc        1 MOL      0.107137
     97 H42         3.2440   -1.3520    3.2010 hc        1 MOL      0.107137
     98 H43         3.7110   -2.4210    4.4400 hc        1 MOL      0.107137
     99 H44         1.1210   -3.1420    6.2120 hc        1 MOL      0.015831
    100 H45         2.3510   -1.8020    6.2580 hc        1 MOL      0.015831
    101 H46         0.6800   -1.5290    6.6980 hc        1 MOL      0.015831
    102 N10         1.7210   -2.0010    0.2820 n         1 MOL     -0.148614
    103 C32         2.5660   -2.0000   -0.9040 c3        1 MOL      0.010612
    104 C33         4.0040   -1.4910   -0.4980 c         1 MOL      0.517379
    105 O16         4.2370   -1.0310    0.5930 o         1 MOL     -0.368881
    106 C34         1.9300   -1.1070   -1.9800 c3        1 MOL     -0.303331
    107 C35         0.5300   -1.4880   -2.2150 c         1 MOL      0.825455
    108 O17        -0.3770   -0.9070   -1.5780 o         1 MOL     -0.689524
    109 O18         0.2870   -2.2650   -3.1930 o         1 MOL     -0.689524
    110 H47         1.3270   -1.1180    0.5740 hn        1 MOL      0.114397
    111 H48         2.5960   -3.0230   -1.2780 h1        1 MOL      0.070807
    112 H49         2.5590   -1.1530   -2.8700 hc        1 MOL      0.078962
    113 H50         1.9600   -0.0740   -1.6340 hc        1 MOL      0.078962
    114 N11         4.9120   -1.5460   -1.4670 n         1 MOL     -0.714519
    115 C36         6.3130   -1.3420   -1.2960 c3        1 MOL      0.505201
    116 C37         6.7110    0.1340   -1.0450 c         1 MOL      0.336581
    117 O19         7.3540    0.3700   -0.0630 o         1 MOL     -0.503126
    118 C38         7.1750   -1.9480   -2.4370 c3        1 MOL     -0.305832
    119 C39         8.7080   -1.7890   -2.3230 ca        1 MOL      0.234413
    120 C40         9.3830   -2.2690   -1.2090 ca        1 MOL     -0.305622
    121 C41         9.4060   -1.0520   -3.3300 ca        1 MOL     -0.305622
    122 C42        10.7250   -1.9320   -1.0140 ca        1 MOL      0.034172
    123 C43        10.7980   -0.8880   -3.1880 ca        1 MOL      0.034172
    124 C44        11.4990   -1.3290   -2.0300 ca        1 MOL     -0.262729
    125 H51         4.6290   -2.0530   -2.2970 hn        1 MOL      0.341623
    126 H52         6.6760   -1.8800   -0.4240 h1        1 MOL      0.014308
    127 H53         6.8130   -1.6920   -3.4350 hc        1 MOL      0.069234
    128 H54         6.9890   -3.0250   -2.4320 hc        1 MOL      0.069234
    129 H55         8.8880   -2.9160   -0.5050 ha        1 MOL      0.154770
    130 H56         8.8380   -0.6300   -4.1550 ha        1 MOL      0.154770
    131 H57        11.2210   -2.3710   -0.1620 ha        1 MOL      0.077476
    132 H58        11.3170   -0.3620   -3.9770 ha        1 MOL      0.077476
    133 H59        12.5540   -1.2010   -1.8490 ha        1 MOL      0.141622
    134 N12         6.1850    1.1110   -1.8040 n         1 MOL     -0.116664
    135 C45         6.3930    2.5460   -1.3970 c3        1 MOL      0.025505
    136 C46         5.6730    2.8500   -0.0370 c         1 MOL      0.289704
    137 O20         5.9780    3.8850    0.5470 o         1 MOL     -0.518533
    138 C47         5.7990    3.3860   -2.5490 c3        1 MOL      0.062368
    139 C48         5.7030    2.3800   -3.7480 c3        1 MOL     -0.215223
    140 C49         5.7150    0.9880   -3.1280 c3        1 MOL      0.132331
    141 H60         7.4580    2.8030   -1.3920 h1        1 MOL      0.063910
    142 H61         4.8340    3.7640   -2.2140 hc        1 MOL      0.022187
    143 H62         6.4240    4.2600   -2.7200 hc        1 MOL      0.022187
    144 H63         4.7350    2.5420   -4.2380 hc        1 MOL      0.063902
    145 H64         6.5060    2.5400   -4.4650 hc        1 MOL      0.063902
    146 H65         4.7170    0.5630   -3.0390 h1        1 MOL     -0.003031
    147 H66         6.2850    0.2610   -3.7060 h1        1 MOL     -0.003031
    148 N13         4.7060    2.0790    0.4050 n         1 MOL     -0.025872
    149 C50         4.0090    2.2630    1.6890 c3        1 MOL     -0.102647
    150 C51         4.8000    1.5840    2.8500 c         1 MOL      0.433244
    151 O21         4.8310    2.0790    3.9730 o         1 MOL     -0.549000
    152 C52         2.6270    1.5930    1.5900 c3        1 MOL     -0.252465
    153 C53         1.6490    2.1450    0.5220 c3        1 MOL     -0.069572
    154 C54         0.2710    1.4770    0.6200 c         1 MOL      0.657776
    155 O22         0.0370    0.4640    1.3190 o         1 MOL     -0.726089
    156 O23        -0.5970    1.8770   -0.1800 o         1 MOL     -0.726089
    157 H67         4.5110    1.2420   -0.1330 hn        1 MOL      0.117705
    158 H68         3.8670    3.3320    1.8660 h1        1 MOL      0.126624
    159 H69         2.0860    1.8100    2.5150 hc        1 MOL      0.148167
    160 H70         2.7190    0.5190    1.5250 hc        1 MOL      0.148167
    161 H71         2.0810    2.0620   -0.4730 hc        1 MOL      0.059366
    162 H72         1.5660    3.2080    0.7550 hc        1 MOL      0.059366
    163 N14         5.5080    0.4750    2.4990 n         1 MOL      0.040087
    164 C55         6.5430   -0.1310    3.3490 c3        1 MOL     -0.214803
    165 H73         7.3770    0.5640    3.4570 h1        1 MOL      0.076577
    166 H74         6.1240   -0.3500    4.3310 h1        1 MOL      0.076577
    167 H75         6.8960   -1.0540    2.8890 h1        1 MOL      0.076577
    168 H76         5.2670    0.1580    1.5680 hn        1 MOL     -0.026806
    169 Ca1        -2.3190   -0.0220   -0.0360 Ca        1 MOL      1.714383
    170 O24        -4.5130   -0.8450    1.7560 oh        1 MOL     -0.909311
    171 H77        -3.8010   -0.8160    2.3830 ho        1 MOL      0.425053
    172 H78        -5.2510   -0.4350    2.2020 ho        1 MOL      0.425053
    173 O25        -2.1850   -0.1190    2.6880 oh        1 MOL     -0.909311
    174 H79        -1.2660    0.0910    2.5400 ho        1 MOL      0.425053
    175 H80        -2.2720   -0.1640    3.6420 ho        1 MOL      0.425053
@<TRIPOS>BOND
     1    1    2 1   
     2    1    4 1   
     3    1    5 1   
     4    1    6 1   
     5    2    3 2   
     6    2    7 1   
     7    7    8 1   
     8    7   15 1   
     9    8    9 1   
    10    8   11 1   
    11    8   16 1   
    12    9   10 2   
    13    9   19 1   
    14   11   12 1   
    15   11   17 1   
    16   11   18 1   
    17   12   13 1   
    18   12   14 1   
    19   19   20 1   
    20   19   24 1   
    21   20   21 1   
    22   20   23 1   
    23   20   25 1   
    24   21   22 2   
    25   21   29 1   
    26   23   26 1   
    27   23   27 1   
    28   23   28 1   
    29   29   30 1   
    30   29   37 1   
    31   30   31 1   
    32   30   33 1   
    33   30   38 1   
    34   31   32 2   
    35   31   41 1   
    36   33   34 1   
    37   33   39 1   
    38   33   40 1   
    39   34   35 1   
    40   34   36 1   
    41   41   42 1   
    42   41   45 1   
    43   42   43 1   
    44   42   46 1   
    45   42   47 1   
    46   43   44 2   
    47   43   48 1   
    48   48   49 1   
    49   48   56 1   
    50   49   50 1   
    51   49   52 1   
    52   49   57 1   
    53   50   51 2   
    54   50   62 1   
    55   52   53 1   
    56   52   58 1   
    57   52   59 1   
    58   53   54 1   
    59   53   55 2   
    60   54   60 1   
    61   54   61 1   
    62   62   63 1   
    63   62   66 1   
    64   63   64 1   
    65   63   67 1   
    66   63   68 1   
    67   64   65 2   
    68   64   69 1   
    69   69   70 1   
    70   69   76 1   
    71   70   71 1   
    72   70   73 1   
    73   70   77 1   
    74   71   72 2   
    75   71   83 1   
    76   73   74 1   
    77   73   75 1   
    78   73   78 1   
    79   74   80 1   
    80   74   81 1   
    81   74   82 1   
    82   75   79 1   
    83   83   84 1   
    84   83   91 1   
    85   84   85 1   
    86   84   87 1   
    87   84   92 1   
    88   85   86 2   
    89   85  102 1   
    90   87   88 1   
    91   87   89 1   
    92   87   93 1   
    93   88   90 1   
    94   88   94 1   
    95   88   95 1   
    96   89   96 1   
    97   89   97 1   
    98   89   98 1   
    99   90   99 1   
   100   90  100 1   
   101   90  101 1   
   102  102  103 1   
   103  102  110 1   
   104  103  104 1   
   105  103  106 1   
   106  103  111 1   
   107  104  105 2   
   108  104  114 1   
   109  106  107 1   
   110  106  112 1   
   111  106  113 1   
   112  107  108 1   
   113  107  109 1   
   114  114  115 1   
   115  114  125 1   
   116  115  116 1   
   117  115  118 1   
   118  115  126 1   
   119  116  117 2   
   120  116  134 1   
   121  118  119 1   
   122  118  127 1   
   123  118  128 1   
   124  119  120 ar  
   125  119  121 ar  
   126  120  122 ar  
   127  120  129 1   
   128  121  123 ar  
   129  121  130 1   
   130  122  124 ar  
   131  122  131 1   
   132  123  124 ar  
   133  123  132 1   
   134  124  133 1   
   135  134  135 1   
   136  134  140 1   
   137  135  136 1   
   138  135  138 1   
   139  135  141 1   
   140  136  137 2   
   141  136  148 1   
   142  138  139 1   
   143  138  142 1   
   144  138  143 1   
   145  139  140 1   
   146  139  144 1   
   147  139  145 1   
   148  140  146 1   
   149  140  147 1   
   150  148  149 1   
   151  148  157 1   
   152  149  150 1   
   153  149  152 1   
   154  149  158 1   
   155  150  151 2   
   156  150  163 1   
   157  152  153 1   
   158  152  159 1   
   159  152  160 1   
   160  153  154 1   
   161  153  161 1   
   162  153  162 1   
   163  154  155 1   
   164  154  156 1   
   165  163  164 1   
   166  163  168 1   
   167  164  165 1   
   168  164  166 1   
   169  164  167 1   
   170  170  171 1   
   171  170  172 1   
   172  173  174 1   
   173  173  175 1   
@<TRIPOS>SUBSTRUCTURE
     1 MOL         1 TEMP              0 ****  ****    0 ROOT
