@<TRIPOS>MOLECULE
MOL
  189   185     1     0     0
SMALL
resp


@<TRIPOS>ATOM
      1 C1          0.0230   -4.3740    5.8710 c3        1 MOL     -0.235520
      2 C2          0.4070   -3.7800    4.5320 c         1 MOL      0.755763
      3 O1          0.3110   -2.5750    4.2700 o         1 MOL     -0.622735
      4 H1         -0.3690   -5.3800    5.7220 hc        1 MOL      0.055519
      5 H2          0.9010   -4.4190    6.5150 hc        1 MOL      0.055519
      6 H3         -0.7400   -3.7520    6.3390 hc        1 MOL      0.055519
      7 N1          0.7820   -4.6530    3.5720 n         1 MOL     -0.650573
      8 C3          1.4820   -4.2940    2.3150 c3        1 MOL      0.511462
      9 C4          1.3710   -5.4060    1.2070 c         1 MOL      0.470408
     10 O2          1.1720   -6.5800    1.4890 o         1 MOL     -0.593566
     11 C5          2.9010   -4.0120    2.7150 c3        1 MOL     -0.476776
     12 C6          3.7920   -3.6500    1.4980 c         1 MOL      0.656845
     13 O3          4.5040   -4.5430    1.0100 o         1 MOL     -0.601802
     14 O4          3.6390   -2.4950    0.9890 o         1 MOL     -0.601802
     15 H4          0.7080   -5.5970    3.9140 hn        1 MOL      0.292198
     16 H5          0.9790   -3.4030    1.9390 h1        1 MOL     -0.082517
     17 H6          3.2690   -4.9400    3.1490 hc        1 MOL      0.087531
     18 H7          2.9100   -3.1940    3.4300 hc        1 MOL      0.087531
     19 N2          1.4670   -4.9780   -0.0000 n         1 MOL     -0.249178
     20 C7          1.1860   -5.5980   -1.2850 c3        1 MOL     -0.069637
     21 C8          2.2850   -5.2150   -2.3660 c         1 MOL      0.522695
     22 O5          2.1800   -5.7750   -3.4620 o         1 MOL     -0.552020
     23 C9         -0.2880   -5.4300   -1.7390 c3        1 MOL      0.352212
     24 C10        -1.3840   -5.8520   -0.6750 c3        1 MOL     -0.077492
     25 C11        -0.6500   -6.3110   -3.0050 c3        1 MOL     -0.405097
     26 C12        -2.8260   -5.3520   -1.1040 c3        1 MOL     -0.020717
     27 H8          1.6450   -3.9890   -0.0510 hn        1 MOL      0.226839
     28 H9          1.3220   -6.6540   -1.0560 h1        1 MOL      0.063871
     29 H10        -0.5390   -4.3700   -1.8100 hc        1 MOL     -0.024733
     30 H11        -1.1260   -5.3250    0.2440 hc        1 MOL     -0.003549
     31 H12        -1.4620   -6.9370   -0.5480 hc        1 MOL     -0.003549
     32 H13        -0.3530   -5.6320   -3.8050 hc        1 MOL      0.085900
     33 H14        -0.1090   -7.2550   -2.9860 hc        1 MOL      0.085900
     34 H15        -1.6950   -6.5900   -3.1200 hc        1 MOL      0.085900
     35 H16        -3.1870   -5.7200   -2.0650 hc        1 MOL      0.005356
     36 H17        -3.5620   -5.5740   -0.3240 hc        1 MOL      0.005356
     37 H18        -2.8430   -4.2730   -1.2030 hc        1 MOL      0.005356
     38 N3          3.2700   -4.3380   -2.0540 n         1 MOL     -0.331803
     39 C13         4.0690   -3.7750   -3.0830 c3        1 MOL      0.131453
     40 C14         5.4620   -3.2990   -2.6740 c         1 MOL      0.430788
     41 O6          6.3050   -3.2240   -3.5960 o         1 MOL     -0.567820
     42 C15         3.2580   -2.7030   -3.8630 c3        1 MOL     -0.426739
     43 C16         2.6620   -1.5880   -3.0500 c         1 MOL      0.911925
     44 O7          3.1320   -1.2930   -1.9480 o         1 MOL     -0.741732
     45 O8          1.6350   -1.0680   -3.4780 o         1 MOL     -0.741732
     46 H19         3.2240   -3.9940   -1.1000 hn        1 MOL      0.142006
     47 H20         4.3090   -4.6720   -3.6560 h1        1 MOL      0.057912
     48 H21         2.4950   -3.2110   -4.4440 hc        1 MOL      0.103252
     49 H22         3.9780   -2.2000   -4.5120 hc        1 MOL      0.103252
     50 N4          5.7720   -2.9960   -1.3850 n         1 MOL     -0.023158
     51 C17         7.0350   -2.5370   -0.9450 c3        1 MOL     -0.264576
     52 C18         7.5460   -1.0900   -1.2520 c         1 MOL      0.429490
     53 O9          8.7450   -0.7510   -1.1190 o         1 MOL     -0.586810
     54 H23         5.0390   -3.1730   -0.7270 hn        1 MOL     -0.003611
     55 H24         7.8410   -3.2470   -1.1420 h1        1 MOL      0.121735
     56 H25         6.8960   -2.5880    0.1390 h1        1 MOL      0.121735
     57 N5          6.6580   -0.1890   -1.6700 n         1 MOL     -0.094715
     58 C19         6.9490    1.2130   -1.9470 c3        1 MOL     -0.184869
     59 C20         7.2260    2.0010   -0.6420 c         1 MOL      0.483754
     60 O10         7.6970    3.1530   -0.7260 o         1 MOL     -0.531387
     61 C21         5.7230    1.8930   -2.6270 c3        1 MOL     -0.157216
     62 C22         4.4100    1.7450   -1.9820 c         1 MOL      0.802062
     63 O11         4.1940    1.0840   -0.9530 o         1 MOL     -0.731679
     64 O12         3.4680    2.2400   -2.6610 o         1 MOL     -0.731679
     65 H26         5.7540   -0.5790   -1.9130 hn        1 MOL      0.174916
     66 H27         7.8390    1.2630   -2.5570 h1        1 MOL      0.135973
     67 H28         5.6380    1.5990   -3.6790 hc        1 MOL      0.063123
     68 H29         5.8510    2.9680   -2.7390 hc        1 MOL      0.063123
     69 N6          7.0000    1.4150    0.5840 n         1 MOL     -0.272839
     70 C23         6.9800    2.2380    1.7600 c3        1 MOL     -0.069492
     71 C24         6.0840    3.5210    1.6710 c         1 MOL      0.482681
     72 O13         6.3770    4.5770    2.1920 o         1 MOL     -0.562291
     73 H30         6.7840    0.4370    0.6690 hn        1 MOL      0.249026
     74 H31         7.9970    2.5670    1.9970 h1        1 MOL      0.060430
     75 H32         6.6310    1.6480    2.6030 h1        1 MOL      0.060430
     76 N7          4.9060    3.3990    1.0490 n         1 MOL     -0.352031
     77 C25         3.7080    4.1880    1.2300 c3        1 MOL      0.223087
     78 C26         2.4680    3.3770    1.5130 c         1 MOL      0.510225
     79 O14         2.4870    2.2060    1.1870 o         1 MOL     -0.553340
     80 C27         3.4380    5.1630    0.0040 c3        1 MOL     -0.264489
     81 C28         4.6360    5.9550   -0.4950 c3        1 MOL     -0.175063
     82 C29         4.3290    7.2260   -1.2520 c         1 MOL      0.739615
     83 N8          5.3530    7.9900   -1.6240 n         1 MOL     -0.861196
     84 O15         3.1810    7.5290   -1.6040 o         1 MOL     -0.573734
     85 H33         4.6860    2.4870    0.6830 hn        1 MOL      0.251177
     86 H34         3.7770    4.8240    2.1120 h1        1 MOL      0.010641
     87 H35         2.8090    5.9930    0.3430 hc        1 MOL      0.089432
     88 H36         3.0440    4.5250   -0.7820 hc        1 MOL      0.089432
     89 H37         5.1550    5.3050   -1.2040 hc        1 MOL      0.075349
     90 H38         5.2640    6.1500    0.3660 hc        1 MOL      0.075349
     91 H39         6.2170    7.8550   -1.1180 hn        1 MOL      0.360052
     92 H40         5.2810    8.8100   -2.2100 hn        1 MOL      0.360052
     93 N9          1.3960    3.9750    2.1280 n         1 MOL     -0.616593
     94 C30         0.2150    3.2520    2.5570 c3        1 MOL      0.316499
     95 C31        -0.9490    3.6170    1.6170 c         1 MOL      0.432321
     96 O16        -1.2870    4.8030    1.5500 o         1 MOL     -0.583218
     97 C32        -0.1110    3.6200    4.0570 c3        1 MOL      0.189380
     98 C33        -1.5160    3.1580    4.4430 c3        1 MOL     -0.336654
     99 C34         0.9800    3.0300    5.0140 c3        1 MOL     -0.336654
    100 H41         1.4920    4.9200    2.4570 hn        1 MOL      0.326188
    101 H42         0.3040    2.1750    2.4410 h1        1 MOL     -0.015663
    102 H43        -0.1010    4.7060    4.0560 hc        1 MOL     -0.039628
    103 H44        -1.5370    2.1140    4.1450 hc        1 MOL      0.081241
    104 H45        -1.6790    3.2970    5.5060 hc        1 MOL      0.081241
    105 H46        -2.2340    3.7420    3.8670 hc        1 MOL      0.081241
    106 H47         1.9370    3.4630    4.7340 hc        1 MOL      0.081241
    107 H48         0.8020    3.1080    6.0890 hc        1 MOL      0.081241
    108 H49         1.0210    1.9510    4.8740 hc        1 MOL      0.081241
    109 N10        -1.4180    2.6620    0.8310 n         1 MOL     -0.141297
    110 C35        -2.5060    2.7880   -0.0900 c3        1 MOL      0.000390
    111 C36        -3.9360    2.6570    0.4660 c         1 MOL      0.298943
    112 O17        -4.0900    1.9900    1.4690 o         1 MOL     -0.394369
    113 C37        -2.2310    1.6940   -1.1250 c3        1 MOL     -0.285033
    114 C38        -3.2380    1.6000   -2.2700 c         1 MOL      0.836258
    115 N11        -3.1930    2.4950   -3.1100 n         1 MOL     -0.809578
    116 O18        -4.1590    0.7600   -2.2820 o         1 MOL     -0.699189
    117 H50        -0.9570    1.7640    0.8210 hn        1 MOL      0.182135
    118 H51        -2.3410    3.7570   -0.5720 h1        1 MOL      0.058304
    119 H52        -2.2860    0.7980   -0.5110 hc        1 MOL      0.108994
    120 H53        -1.2780    1.8980   -1.6200 hc        1 MOL      0.108994
    121 H54        -2.4480    3.1740   -3.2440 hn        1 MOL      0.363294
    122 H55        -3.9190    2.4480   -3.8180 hn        1 MOL      0.363294
    123 N12        -5.0180    3.1150   -0.1790 n         1 MOL     -0.139015
    124 C39        -6.3820    2.9570    0.2840 c3        1 MOL      0.074741
    125 C40        -6.9100    1.5980    0.5180 c         1 MOL      0.270812
    126 O19        -7.6850    1.4290    1.4390 o         1 MOL     -0.570723
    127 C41        -7.3090    3.7140   -0.6210 c3        1 MOL     -0.168116
    128 C42        -7.1150    3.3110   -2.0760 ca        1 MOL     -0.133956
    129 C43        -6.3810    4.0910   -2.9130 ca        1 MOL      0.008752
    130 C44        -7.7780    2.1400   -2.6450 ca        1 MOL      0.008752
    131 C45        -6.1390    3.6930   -4.2410 ca        1 MOL     -0.314282
    132 C46        -7.4200    1.6530   -3.8830 ca        1 MOL     -0.314282
    133 C47        -6.6500    2.5030   -4.6950 ca        1 MOL      0.328158
    134 O20        -6.3750    2.0450   -5.9870 oh        1 MOL     -0.415663
    135 H56        -4.9410    3.6290   -1.0490 hn        1 MOL      0.085059
    136 H57        -6.4300    3.4530    1.2580 h1        1 MOL      0.058198
    137 H58        -7.1950    4.7980   -0.5050 hc        1 MOL      0.080086
    138 H59        -8.3590    3.5470   -0.3480 hc        1 MOL      0.080086
    139 H60        -6.0610    5.0750   -2.5680 ha        1 MOL      0.074108
    140 H61        -8.3370    1.5350   -1.9450 ha        1 MOL      0.074108
    141 H62        -5.4670    4.2900   -4.8300 ha        1 MOL      0.136396
    142 H63        -7.5860    0.6560   -4.2390 ha        1 MOL      0.136396
    143 H64        -5.7280    2.6440   -6.3750 ho        1 MOL      0.292569
    144 N13        -6.4400    0.6300   -0.2480 n         1 MOL      0.451553
    145 C48        -6.7620   -0.8130   -0.1560 c3        1 MOL     -0.546146
    146 C49        -5.9370   -1.4760    0.9400 c         1 MOL      0.594866
    147 O21        -6.3590   -2.4530    1.5550 o         1 MOL     -0.498679
    148 C50        -6.6780   -1.5610   -1.4910 c3        1 MOL      0.012587
    149 C51        -7.4700   -2.8320   -1.4610 c3        1 MOL     -0.131834
    150 C52        -8.9910   -2.5150   -1.3050 c         1 MOL      0.650520
    151 O22        -9.6690   -2.0820   -2.2840 o         1 MOL     -0.711555
    152 O23        -9.4650   -2.6490   -0.1800 o         1 MOL     -0.711555
    153 H65        -5.7280    0.8730   -0.9150 hn        1 MOL      0.212162
    154 H66        -7.8140   -0.8580    0.1420 h1        1 MOL      0.211730
    155 H67        -5.6740   -1.7860   -1.8650 hc        1 MOL      0.056898
    156 H68        -7.1360   -0.9320   -2.2630 hc        1 MOL      0.056898
    157 H69        -7.1560   -3.3500   -0.5470 hc        1 MOL     -0.010218
    158 H70        -7.3370   -3.3310   -2.4150 hc        1 MOL     -0.010218
    159 N14        -4.7690   -0.9720    1.2780 n         1 MOL     -0.122138
    160 C53        -4.0050   -1.3540    2.4310 c3        1 MOL     -0.174738
    161 C54        -4.3530   -0.6830    3.8380 c         1 MOL      0.405633
    162 O24        -4.4860   -1.3650    4.8620 o         1 MOL     -0.533796
    163 C55        -2.5270   -1.0690    2.0980 c3        1 MOL      0.173383
    164 C56        -1.8970   -1.8350    0.9750 c3        1 MOL      0.070241
    165 C57        -0.3930   -1.3480    0.7270 c         1 MOL      0.771593
    166 O25         0.4710   -2.1130    0.1640 o         1 MOL     -0.733387
    167 O26        -0.1070   -0.1550    0.9140 o         1 MOL     -0.733387
    168 H71        -4.5820   -0.0600    0.8880 hn        1 MOL     -0.038045
    169 H72        -4.1800   -2.4210    2.5660 h1        1 MOL      0.108434
    170 H73        -1.8260   -1.1890    2.9240 hc        1 MOL     -0.071381
    171 H74        -2.5120   -0.0410    1.7210 hc        1 MOL     -0.071381
    172 H75        -2.4740   -1.7140    0.0680 hc        1 MOL     -0.040191
    173 H76        -1.7910   -2.9010    1.1930 hc        1 MOL     -0.040191
    174 N15        -4.7180    0.6160    3.9510 n         1 MOL     -0.057803
    175 C58        -5.1480    1.2910    5.1460 c3        1 MOL     -0.301854
    176 H77        -4.8900    2.3480    5.0790 h1        1 MOL      0.103290
    177 H78        -6.2270    1.1870    5.2540 h1        1 MOL      0.103290
    178 H79        -4.6530    0.8510    6.0110 h1        1 MOL      0.103290
    179 H80        -4.7430    1.1190    3.0700 hn        1 MOL      0.136033
    180 Ca1         2.4820   -0.2480    0.2640 Ca        1 MOL      1.742859
    181 O27         1.6760   -0.7060    2.8660 oh        1 MOL     -0.921693
    182 O28         1.3550    1.0240   -1.7860 oh        1 MOL     -0.921693
    183 H81         0.9200   -0.2800    2.4570 ho        1 MOL      0.427612
    184 H82         1.4920    0.3710   -2.4700 ho        1 MOL      0.427612
    185 H83         1.3060   -1.3910    3.4180 ho        1 MOL      0.427612
    186 H84         1.8620    1.7890   -2.0710 ho        1 MOL      0.427612
    187 O29         4.7920   -0.3430    1.9700 oh        1 MOL     -0.921693
    188 H85         4.8030   -1.3040    2.0030 ho        1 MOL      0.427612
    189 H86         4.8630   -0.0830    2.8880 ho        1 MOL      0.427612
@<TRIPOS>BOND
     1    1    2 1   
     2    1    4 1   
     3    1    5 1   
     4    1    6 1   
     5    2    3 2   
     6    2    7 1   
     7    7    8 1   
     8    7   15 1   
     9    8    9 1   
    10    8   11 1   
    11    8   16 1   
    12    9   10 2   
    13    9   19 1   
    14   11   12 1   
    15   11   17 1   
    16   11   18 1   
    17   12   13 1   
    18   12   14 1   
    19   19   20 1   
    20   19   27 1   
    21   20   21 1   
    22   20   23 1   
    23   20   28 1   
    24   21   22 2   
    25   21   38 1   
    26   23   24 1   
    27   23   25 1   
    28   23   29 1   
    29   24   26 1   
    30   24   30 1   
    31   24   31 1   
    32   25   32 1   
    33   25   33 1   
    34   25   34 1   
    35   26   35 1   
    36   26   36 1   
    37   26   37 1   
    38   38   39 1   
    39   38   46 1   
    40   39   40 1   
    41   39   42 1   
    42   39   47 1   
    43   40   41 2   
    44   40   50 1   
    45   42   43 1   
    46   42   48 1   
    47   42   49 1   
    48   43   44 1   
    49   43   45 1   
    50   50   51 1   
    51   50   54 1   
    52   51   52 1   
    53   51   55 1   
    54   51   56 1   
    55   52   53 2   
    56   52   57 1   
    57   57   58 1   
    58   57   65 1   
    59   58   59 1   
    60   58   61 1   
    61   58   66 1   
    62   59   60 2   
    63   59   69 1   
    64   61   62 1   
    65   61   67 1   
    66   61   68 1   
    67   62   63 1   
    68   62   64 1   
    69   69   70 1   
    70   69   73 1   
    71   70   71 1   
    72   70   74 1   
    73   70   75 1   
    74   71   72 2   
    75   71   76 1   
    76   76   77 1   
    77   76   85 1   
    78   77   78 1   
    79   77   80 1   
    80   77   86 1   
    81   78   79 2   
    82   78   93 1   
    83   80   81 1   
    84   80   87 1   
    85   80   88 1   
    86   81   82 1   
    87   81   89 1   
    88   81   90 1   
    89   82   83 1   
    90   82   84 2   
    91   83   91 1   
    92   83   92 1   
    93   93   94 1   
    94   93  100 1   
    95   94   95 1   
    96   94   97 1   
    97   94  101 1   
    98   95   96 2   
    99   95  109 1   
   100   97   98 1   
   101   97   99 1   
   102   97  102 1   
   103   98  103 1   
   104   98  104 1   
   105   98  105 1   
   106   99  106 1   
   107   99  107 1   
   108   99  108 1   
   109  109  110 1   
   110  109  117 1   
   111  110  111 1   
   112  110  113 1   
   113  110  118 1   
   114  111  112 2   
   115  111  123 1   
   116  113  114 1   
   117  113  119 1   
   118  113  120 1   
   119  114  115 1   
   120  114  116 2   
   121  115  121 1   
   122  115  122 1   
   123  123  124 1   
   124  123  135 1   
   125  124  125 1   
   126  124  127 1   
   127  124  136 1   
   128  125  126 2   
   129  125  144 1   
   130  127  128 1   
   131  127  137 1   
   132  127  138 1   
   133  128  129 ar  
   134  128  130 ar  
   135  129  131 ar  
   136  129  139 1   
   137  130  132 ar  
   138  130  140 1   
   139  131  133 ar  
   140  131  141 1   
   141  132  133 ar  
   142  132  142 1   
   143  133  134 1   
   144  134  143 1   
   145  144  145 1   
   146  144  153 1   
   147  145  146 1   
   148  145  148 1   
   149  145  154 1   
   150  146  147 2   
   151  146  159 1   
   152  148  149 1   
   153  148  155 1   
   154  148  156 1   
   155  149  150 1   
   156  149  157 1   
   157  149  158 1   
   158  150  151 1   
   159  150  152 1   
   160  159  160 1   
   161  159  168 1   
   162  160  161 1   
   163  160  163 1   
   164  160  169 1   
   165  161  162 2   
   166  161  174 1   
   167  163  164 1   
   168  163  170 1   
   169  163  171 1   
   170  164  165 1   
   171  164  172 1   
   172  164  173 1   
   173  165  166 1   
   174  165  167 1   
   175  174  175 1   
   176  174  179 1   
   177  175  176 1   
   178  175  177 1   
   179  175  178 1   
   180  181  183 1   
   181  181  185 1   
   182  182  184 1   
   183  182  186 1   
   184  187  188 1   
   185  187  189 1   
@<TRIPOS>SUBSTRUCTURE
     1 MOL         1 TEMP              0 ****  ****    0 ROOT
