@<TRIPOS>MOLECULE
MOL
  175   173     1     0     0
SMALL
resp


@<TRIPOS>ATOM
      1 C1          0.3500    4.3610    5.2750 c3        1 MOL     -0.352600
      2 C2         -0.3050    4.4330    3.9010 c         1 MOL      0.768485
      3 O1          0.2900    4.7630    2.9110 o         1 MOL     -0.558640
      4 H1         -0.0570    5.1460    5.9130 hc        1 MOL      0.078801
      5 H2          0.1490    3.3880    5.7250 hc        1 MOL      0.078801
      6 H3          1.4270    4.4990    5.1730 hc        1 MOL      0.078801
      7 N1         -1.5790    4.1260    3.8500 n         1 MOL     -0.680350
      8 C3         -2.3630    3.8330    2.6470 c3        1 MOL      0.257818
      9 C4         -2.4670    4.9550    1.5890 c         1 MOL      0.484969
     10 O2         -2.7170    6.1590    1.9440 o         1 MOL     -0.583346
     11 C5         -3.6950    3.1630    3.0600 c3        1 MOL     -0.418188
     12 C6         -4.3490    2.2480    2.0140 c         1 MOL      0.884616
     13 O3         -3.8850    2.2180    0.8610 o         1 MOL     -0.707224
     14 O4         -5.4180    1.7790    2.3570 o         1 MOL     -0.707224
     15 H4         -2.0980    3.9860    4.7060 hn        1 MOL      0.323222
     16 H5         -1.8500    2.9920    2.1810 h1        1 MOL      0.125287
     17 H6         -4.3470    4.0250    3.1920 hc        1 MOL      0.076482
     18 H7         -3.5350    2.7020    4.0370 hc        1 MOL      0.076482
     19 N2         -2.3140    4.6010    0.2900 n         1 MOL     -0.517033
     20 C7         -2.2920    5.4750   -0.9290 c3        1 MOL      0.504104
     21 C8         -3.1730    4.9410   -2.0810 c         1 MOL      0.399590
     22 O5         -3.1700    5.4320   -3.2190 o         1 MOL     -0.558288
     23 C9         -0.8440    5.6380   -1.3850 c3        1 MOL     -0.307544
     24 H8         -2.2400    3.6010    0.2510 hn        1 MOL      0.330829
     25 H9         -2.7520    6.4470   -0.7200 h1        1 MOL     -0.047364
     26 H10        -0.3090    4.7060   -1.5710 hc        1 MOL      0.063488
     27 H11        -0.9410    6.1740   -2.3220 hc        1 MOL      0.063488
     28 H12        -0.3870    6.2290   -0.5920 hc        1 MOL      0.063488
     29 N3         -3.9160    3.8620   -1.8470 n         1 MOL     -0.308108
     30 C10        -4.8240    3.2540   -2.9150 c3        1 MOL      0.033971
     31 C11        -6.0560    2.4840   -2.3110 c         1 MOL      0.364495
     32 O6         -7.0870    2.3000   -2.9990 o         1 MOL     -0.546693
     33 C12        -3.9630    2.3620   -3.8220 c3        1 MOL     -0.029154
     34 C13        -3.1750    1.2500   -3.2020 c         1 MOL      0.685885
     35 O7         -2.1530    0.9340   -3.8610 o         1 MOL     -0.680727
     36 O8         -3.5740    0.5880   -2.2030 o         1 MOL     -0.680727
     37 H13        -3.8510    3.5030   -0.9110 hn        1 MOL      0.053099
     38 H14        -5.2390    4.0540   -3.5200 h1        1 MOL      0.087687
     39 H15        -3.2500    3.0970   -4.1740 hc        1 MOL      0.013830
     40 H16        -4.6280    2.0030   -4.6160 hc        1 MOL      0.013830
     41 N4         -6.1370    2.1720   -1.0230 n         1 MOL     -0.193438
     42 C14        -7.1680    1.4280   -0.3660 c3        1 MOL     -0.292875
     43 C15        -7.1940   -0.0850   -0.6830 c         1 MOL      0.559258
     44 O9         -8.2410   -0.6670   -0.4690 o         1 MOL     -0.605994
     45 H17        -5.3590    2.4810   -0.4700 hn        1 MOL      0.255653
     46 H18        -8.1610    1.8000   -0.6420 h1        1 MOL      0.133837
     47 H19        -6.9880    1.5890    0.6980 h1        1 MOL      0.133837
     48 N5         -6.1840   -0.6800   -1.3810 n         1 MOL     -0.107639
     49 C16        -6.1200   -2.0280   -1.9060 c3        1 MOL     -0.282152
     50 C17        -6.0580   -3.3220   -1.0560 c         1 MOL      0.482443
     51 O10        -5.9220   -4.4300   -1.5400 o         1 MOL     -0.487957
     52 C18        -5.0050   -2.1530   -2.9330 c3        1 MOL     -0.060072
     53 C19        -3.5840   -2.4310   -2.4330 c         1 MOL      0.470761
     54 N6         -2.7600   -2.7820   -3.4200 n         1 MOL     -0.687811
     55 O11        -3.2830   -2.2850   -1.2970 o         1 MOL     -0.398458
     56 H20        -5.3630   -0.0950   -1.3500 hn        1 MOL      0.113491
     57 H21        -7.0020   -2.0700   -2.5470 h1        1 MOL      0.157111
     58 H22        -4.9300   -1.3480   -3.6680 hc        1 MOL      0.050458
     59 H23        -5.2560   -2.9640   -3.6120 hc        1 MOL      0.050458
     60 H24        -2.9360   -2.7630   -4.4150 hn        1 MOL      0.360479
     61 H25        -1.7850   -2.8800   -3.1640 hn        1 MOL      0.360479
     62 N7         -6.2050   -3.1730    0.2690 n         1 MOL     -0.260409
     63 C20        -6.0030   -4.3030    1.1880 c3        1 MOL     -0.270767
     64 C21        -4.6140   -4.8720    1.4030 c         1 MOL      0.483681
     65 O12        -4.4720   -5.9180    2.0680 o         1 MOL     -0.586824
     66 H26        -6.5740   -2.3190    0.6640 hn        1 MOL      0.245316
     67 H27        -6.5780   -5.1300    0.7610 h1        1 MOL      0.133245
     68 H28        -6.5250   -4.0390    2.1130 h1        1 MOL      0.133245
     69 N8         -3.5090   -4.3040    0.8940 n         1 MOL     -0.107949
     70 C22        -2.1130   -4.7810    1.1660 c3        1 MOL     -0.112209
     71 C23        -1.2540   -3.6040    1.6610 c         1 MOL      0.322121
     72 O13        -1.4490   -2.4520    1.2290 o         1 MOL     -0.524879
     73 C24        -1.4060   -5.3730   -0.0640 c3        1 MOL      0.580004
     74 C25        -1.9780   -6.7450   -0.3630 c3        1 MOL     -0.449609
     75 O14        -1.5240   -4.7050   -1.3170 oh        1 MOL     -0.611275
     76 H29        -3.6070   -3.4870    0.3140 hn        1 MOL      0.130632
     77 H30        -2.1870   -5.5300    1.9470 h1        1 MOL      0.089901
     78 H31        -0.3850   -5.5680    0.2760 h1        1 MOL     -0.055558
     79 H32        -1.2410   -3.7810   -1.3430 ho        1 MOL      0.344063
     80 H33        -1.6380   -7.4970    0.3500 hc        1 MOL      0.101202
     81 H34        -3.0250   -6.6230   -0.0830 hc        1 MOL      0.101202
     82 H35        -1.7160   -6.9460   -1.4020 hc        1 MOL      0.101202
     83 N9         -0.1650   -3.7590    2.4180 n         1 MOL     -0.282910
     84 C26         0.8890   -2.7520    2.4080 c3        1 MOL     -0.008572
     85 C27         1.7420   -3.0430    1.2140 c         1 MOL      0.418922
     86 O15         2.1620   -4.1460    1.0090 o         1 MOL     -0.585355
     87 C28         1.7250   -2.8020    3.6920 c3        1 MOL      0.275550
     88 C29         0.8420   -2.4970    4.9190 c3        1 MOL      0.236701
     89 C30         2.9300   -1.9060    3.5660 c3        1 MOL     -0.453815
     90 C31         1.1550   -3.3490    6.1850 c3        1 MOL     -0.207582
     91 H36         0.0500   -4.6470    2.8420 hn        1 MOL      0.226394
     92 H37         0.3970   -1.7840    2.4400 h1        1 MOL      0.062857
     93 H38         2.0890   -3.8180    3.8550 hc        1 MOL     -0.045232
     94 H39        -0.1820   -2.8180    4.7070 hc        1 MOL     -0.064311
     95 H40         0.7620   -1.4400    5.1520 hc        1 MOL     -0.064311
     96 H41         3.7470   -2.4410    3.0790 hc        1 MOL      0.084812
     97 H42         2.7140   -1.0970    2.8690 hc        1 MOL      0.084812
     98 H43         3.2320   -1.5280    4.5390 hc        1 MOL      0.084812
     99 H44         0.5680   -2.9760    7.0290 hc        1 MOL      0.031169
    100 H45         0.9240   -4.3800    5.9150 hc        1 MOL      0.031169
    101 H46         2.2090   -3.2260    6.4680 hc        1 MOL      0.031169
    102 N10         1.8390   -2.0720    0.3530 n         1 MOL     -0.021799
    103 C32         2.6080   -2.0690   -0.8480 c3        1 MOL     -0.026917
    104 C33         4.0280   -1.4950   -0.6860 c         1 MOL      0.435533
    105 O16         4.1770   -0.6520    0.1780 o         1 MOL     -0.315548
    106 C34         1.8100   -1.2790   -1.9530 c3        1 MOL     -0.115647
    107 C35         0.3610   -1.8180   -2.2720 c         1 MOL      0.600777
    108 O17         0.1720   -2.5570   -3.2850 o         1 MOL     -0.645363
    109 O18        -0.6150   -1.5300   -1.4870 o         1 MOL     -0.645363
    110 H47         1.3990   -1.2080    0.6330 hn        1 MOL      0.167612
    111 H48         2.5930   -3.1010   -1.2050 h1        1 MOL      0.065305
    112 H49         2.4580   -1.3710   -2.8240 hc        1 MOL      0.042525
    113 H50         1.7930   -0.2230   -1.6970 hc        1 MOL      0.042525
    114 N11         5.0880   -1.8980   -1.4160 n         1 MOL     -0.561600
    115 C36         6.4400   -1.4160   -1.0870 c3        1 MOL      0.141046
    116 C37         6.6970    0.0670   -1.0690 c         1 MOL      0.307684
    117 O19         7.2240    0.6690   -0.0620 o         1 MOL     -0.493171
    118 C38         7.5170   -2.2390   -1.9200 c3        1 MOL     -0.161955
    119 C39         8.9840   -1.8750   -1.6260 ca        1 MOL     -0.008792
    120 C40         9.8440   -1.0720   -2.5390 ca        1 MOL     -0.080909
    121 C41         9.5080   -2.3740   -0.4460 ca        1 MOL     -0.080909
    122 C42        11.1530   -0.7650   -2.1380 ca        1 MOL     -0.206659
    123 C43        10.9040   -2.1240   -0.1700 ca        1 MOL     -0.206659
    124 C44        11.6150   -1.1710   -0.8830 ca        1 MOL      0.023937
    125 H51         4.9240   -2.4040   -2.2770 hn        1 MOL      0.319021
    126 H52         6.5020   -1.7770   -0.0540 h1        1 MOL      0.115530
    127 H53         7.3790   -2.0280   -2.9820 hc        1 MOL      0.077226
    128 H54         7.3730   -3.3200   -1.9210 hc        1 MOL      0.077226
    129 H55         9.5640   -0.7670   -3.5310 ha        1 MOL      0.114055
    130 H56         8.9360   -2.9740    0.2410 ha        1 MOL      0.114055
    131 H57        11.7860   -0.1410   -2.7580 ha        1 MOL      0.125169
    132 H58        11.3420   -2.4210    0.7750 ha        1 MOL      0.125169
    133 H59        12.6470   -0.9560   -0.6890 ha        1 MOL      0.067214
    134 N12         6.1730    0.8580   -2.0020 n         1 MOL      0.024559
    135 C45         6.2470    2.2910   -1.8640 c3        1 MOL     -0.101497
    136 C46         5.3850    2.8180   -0.6750 c         1 MOL      0.439695
    137 O20         5.7520    3.8880   -0.1980 o         1 MOL     -0.501003
    138 C47         5.8420    2.8080   -3.2300 c3        1 MOL     -0.015019
    139 C48         5.8550    1.6780   -4.2130 c3        1 MOL      0.091342
    140 C49         5.6150    0.5050   -3.3130 c3        1 MOL     -0.085652
    141 H60         7.2900    2.5810   -1.7450 h1        1 MOL      0.091389
    142 H61         4.8850    3.3300   -3.2480 hc        1 MOL      0.033101
    143 H62         6.5110    3.6420   -3.4730 hc        1 MOL      0.033101
    144 H63         5.1880    1.9300   -5.0380 hc        1 MOL     -0.008482
    145 H64         6.8460    1.6180   -4.6640 hc        1 MOL     -0.008482
    146 H65         4.5450    0.2700   -3.2510 h1        1 MOL      0.037379
    147 H66         6.1470   -0.3240   -3.7790 h1        1 MOL      0.037379
    148 N13         4.3590    2.1210   -0.1830 n         1 MOL     -0.304117
    149 C50         3.7480    2.6350    1.0910 c3        1 MOL     -0.127904
    150 C51         4.6730    2.2970    2.3170 c         1 MOL      0.321802
    151 O21         4.8880    3.1770    3.1600 o         1 MOL     -0.538276
    152 C52         2.3550    2.1130    1.4420 c3        1 MOL     -0.014801
    153 C53         1.3600    2.4740    0.3980 c3        1 MOL      0.094489
    154 C54         0.0310    1.7360    0.6080 c         1 MOL      0.446173
    155 O22        -0.9840    2.1440   -0.0910 o         1 MOL     -0.708979
    156 O23        -0.0770    0.6840    1.2800 o         1 MOL     -0.708979
    157 H67         4.3110    1.1380   -0.4130 hn        1 MOL      0.163877
    158 H68         3.7020    3.7240    0.9990 h1        1 MOL      0.156649
    159 H69         1.9310    2.5740    2.3420 hc        1 MOL      0.021718
    160 H70         2.4240    1.0310    1.5790 hc        1 MOL      0.021718
    161 H71         1.7240    2.2610   -0.6070 hc        1 MOL      0.033556
    162 H72         1.2000    3.5460    0.4500 hc        1 MOL      0.033556
    163 N14         5.3960    1.2090    2.2630 n         1 MOL      0.120216
    164 C55         6.3370    0.7830    3.2860 c3        1 MOL     -0.151588
    165 H73         5.8220    0.1560    4.0130 h1        1 MOL      0.057067
    166 H74         7.1440    0.2140    2.8230 h1        1 MOL      0.057067
    167 H75         6.7500    1.6570    3.7890 h1        1 MOL      0.057067
    168 H76         5.2310    0.5970    1.4690 hn        1 MOL      0.020814
    169 Ca1        -2.3100   -0.1510   -0.0260 Ca        1 MOL      1.694929
    170 O24        -4.6600   -0.8430    1.4800 oh        1 MOL     -0.811740
    171 H77        -5.2430   -1.3100    2.0790 ho        1 MOL      0.384120
    172 H78        -4.9570    0.0580    1.5080 ho        1 MOL      0.384120
    173 O25        -2.1360    0.1650    2.6040 oh        1 MOL     -0.811740
    174 H79        -1.2030    0.3590    2.6150 ho        1 MOL      0.384120
    175 H80        -2.3740    0.0230    3.5150 ho        1 MOL      0.384120
@<TRIPOS>BOND
     1    1    2 1   
     2    1    4 1   
     3    1    5 1   
     4    1    6 1   
     5    2    3 2   
     6    2    7 1   
     7    7    8 1   
     8    7   15 1   
     9    8    9 1   
    10    8   11 1   
    11    8   16 1   
    12    9   10 2   
    13    9   19 1   
    14   11   12 1   
    15   11   17 1   
    16   11   18 1   
    17   12   13 1   
    18   12   14 1   
    19   19   20 1   
    20   19   24 1   
    21   20   21 1   
    22   20   23 1   
    23   20   25 1   
    24   21   22 2   
    25   21   29 1   
    26   23   26 1   
    27   23   27 1   
    28   23   28 1   
    29   29   30 1   
    30   29   37 1   
    31   30   31 1   
    32   30   33 1   
    33   30   38 1   
    34   31   32 2   
    35   31   41 1   
    36   33   34 1   
    37   33   39 1   
    38   33   40 1   
    39   34   35 1   
    40   34   36 1   
    41   41   42 1   
    42   41   45 1   
    43   42   43 1   
    44   42   46 1   
    45   42   47 1   
    46   43   44 2   
    47   43   48 1   
    48   48   49 1   
    49   48   56 1   
    50   49   50 1   
    51   49   52 1   
    52   49   57 1   
    53   50   51 2   
    54   50   62 1   
    55   52   53 1   
    56   52   58 1   
    57   52   59 1   
    58   53   54 1   
    59   53   55 2   
    60   54   60 1   
    61   54   61 1   
    62   62   63 1   
    63   62   66 1   
    64   63   64 1   
    65   63   67 1   
    66   63   68 1   
    67   64   65 2   
    68   64   69 1   
    69   69   70 1   
    70   69   76 1   
    71   70   71 1   
    72   70   73 1   
    73   70   77 1   
    74   71   72 2   
    75   71   83 1   
    76   73   74 1   
    77   73   75 1   
    78   73   78 1   
    79   74   80 1   
    80   74   81 1   
    81   74   82 1   
    82   75   79 1   
    83   83   84 1   
    84   83   91 1   
    85   84   85 1   
    86   84   87 1   
    87   84   92 1   
    88   85   86 2   
    89   85  102 1   
    90   87   88 1   
    91   87   89 1   
    92   87   93 1   
    93   88   90 1   
    94   88   94 1   
    95   88   95 1   
    96   89   96 1   
    97   89   97 1   
    98   89   98 1   
    99   90   99 1   
   100   90  100 1   
   101   90  101 1   
   102  102  103 1   
   103  102  110 1   
   104  103  104 1   
   105  103  106 1   
   106  103  111 1   
   107  104  105 2   
   108  104  114 1   
   109  106  107 1   
   110  106  112 1   
   111  106  113 1   
   112  107  108 1   
   113  107  109 1   
   114  114  115 1   
   115  114  125 1   
   116  115  116 1   
   117  115  118 1   
   118  115  126 1   
   119  116  117 2   
   120  116  134 1   
   121  118  119 1   
   122  118  127 1   
   123  118  128 1   
   124  119  120 ar  
   125  119  121 ar  
   126  120  122 ar  
   127  120  129 1   
   128  121  123 ar  
   129  121  130 1   
   130  122  124 ar  
   131  122  131 1   
   132  123  124 ar  
   133  123  132 1   
   134  124  133 1   
   135  134  135 1   
   136  134  140 1   
   137  135  136 1   
   138  135  138 1   
   139  135  141 1   
   140  136  137 2   
   141  136  148 1   
   142  138  139 1   
   143  138  142 1   
   144  138  143 1   
   145  139  140 1   
   146  139  144 1   
   147  139  145 1   
   148  140  146 1   
   149  140  147 1   
   150  148  149 1   
   151  148  157 1   
   152  149  150 1   
   153  149  152 1   
   154  149  158 1   
   155  150  151 2   
   156  150  163 1   
   157  152  153 1   
   158  152  159 1   
   159  152  160 1   
   160  153  154 1   
   161  153  161 1   
   162  153  162 1   
   163  154  155 1   
   164  154  156 1   
   165  163  164 1   
   166  163  168 1   
   167  164  165 1   
   168  164  166 1   
   169  164  167 1   
   170  170  171 1   
   171  170  172 1   
   172  173  174 1   
   173  173  175 1   
@<TRIPOS>SUBSTRUCTURE
     1 MOL         1 TEMP              0 ****  ****    0 ROOT
