@<TRIPOS>MOLECULE
MOL
  183   181     1     0     0
SMALL
resp


@<TRIPOS>ATOM
      1 C1          1.2020   -2.3330    6.3530 c3        1 MOL     -0.376886
      2 C2          1.1930   -2.2550    4.8010 c         1 MOL      0.740081
      3 O1          0.2940   -2.6650    4.1410 o         1 MOL     -0.582997
      4 H1          0.7770   -3.2860    6.6720 hc        1 MOL      0.080234
      5 H2          2.2270   -2.2550    6.7150 hc        1 MOL      0.080234
      6 H3          0.6080   -1.5160    6.7630 hc        1 MOL      0.080234
      7 N1          2.2900   -1.7680    4.3340 n         1 MOL     -0.535105
      8 C3          2.6200   -1.7440    2.9260 c3        1 MOL      0.429749
      9 C4          3.1880   -3.0620    2.3770 c         1 MOL      0.363295
     10 O2          4.1300   -3.6590    2.9980 o         1 MOL     -0.567816
     11 C5          3.6940   -0.7190    2.7980 c3        1 MOL     -0.769834
     12 C6          4.4440   -0.6040    1.4480 c         1 MOL      1.008253
     13 O3          5.5590    0.0000    1.3600 o         1 MOL     -0.703064
     14 O4          3.8780   -1.0090    0.3670 o         1 MOL     -0.703064
     15 H4          2.9960   -1.4300    4.9760 hn        1 MOL      0.310063
     16 H5          1.7600   -1.4260    2.3330 h1        1 MOL     -0.027643
     17 H6          4.4510   -0.8180    3.5810 hc        1 MOL      0.156073
     18 H7          3.1960    0.2340    2.9980 hc        1 MOL      0.156073
     19 N2          2.5330   -3.6030    1.3380 n         1 MOL     -0.128989
     20 C7          2.7260   -4.9870    0.8500 c3        1 MOL     -0.067826
     21 C8          3.7940   -5.0980   -0.2870 c         1 MOL      0.436121
     22 O5          4.2480   -6.1990   -0.5740 o         1 MOL     -0.546502
     23 C9          1.2970   -5.5320    0.4870 c3        1 MOL      0.223913
     24 C10         0.2200   -5.4640    1.5950 c3        1 MOL     -0.174127
     25 C11         1.4080   -7.0780    0.1030 c3        1 MOL     -0.103302
     26 C12         0.4480   -6.1600    2.8910 c3        1 MOL     -0.118319
     27 H8          1.7290   -3.0790    1.0140 hn        1 MOL      0.122951
     28 H9          3.0360   -5.5250    1.7500 h1        1 MOL      0.076543
     29 H10         0.9080   -4.9620   -0.3520 hc        1 MOL      0.031686
     30 H11        -0.7650   -5.7280    1.2050 hc        1 MOL      0.073910
     31 H12         0.0220   -4.4390    1.9240 hc        1 MOL      0.073910
     32 H13         0.3710   -7.4200   -0.0060 hc        1 MOL      0.007233
     33 H14         1.8520   -7.2310   -0.8790 hc        1 MOL      0.007233
     34 H15         1.8760   -7.7040    0.8660 hc        1 MOL      0.007233
     35 H16         0.9880   -7.1040    2.8050 hc        1 MOL      0.026386
     36 H17         1.1500   -5.5660    3.4760 hc        1 MOL      0.026386
     37 H18        -0.4620   -6.3770    3.4590 hc        1 MOL      0.026386
     38 N3          4.0920   -3.9610   -0.9900 n         1 MOL     -0.275478
     39 C13         4.9300   -3.8720   -2.2710 c3        1 MOL      0.017366
     40 C14         6.0350   -2.8930   -2.2200 c         1 MOL      0.409667
     41 O6          6.8650   -2.8080   -3.1680 o         1 MOL     -0.526368
     42 C15         4.0300   -3.6640   -3.5730 c3        1 MOL     -0.175626
     43 C16         3.0090   -2.5690   -3.4590 c         1 MOL      0.786531
     44 O7          3.1880   -1.7020   -2.6130 o         1 MOL     -0.718481
     45 O8          2.0450   -2.6610   -4.2670 o         1 MOL     -0.718481
     46 H19         3.5870   -3.1430   -0.7160 hn        1 MOL      0.221186
     47 H20         5.3700   -4.8580   -2.3800 h1        1 MOL      0.087689
     48 H21         3.6130   -4.6540   -3.7600 hc        1 MOL      0.043789
     49 H22         4.7280   -3.3920   -4.3670 hc        1 MOL      0.043789
     50 N4          6.2050   -2.2280   -1.0660 n         1 MOL     -0.195270
     51 C17         7.4280   -1.5150   -0.7020 c3        1 MOL     -0.283633
     52 C18         7.6190   -0.2140   -1.4470 c         1 MOL      0.530388
     53 O9          8.7420    0.0480   -1.8520 o         1 MOL     -0.591417
     54 H23         5.3460   -2.1290   -0.5500 hn        1 MOL      0.102665
     55 H24         8.3070   -2.1360   -0.9260 h1        1 MOL      0.137790
     56 H25         7.4160   -1.2090    0.3500 h1        1 MOL      0.137790
     57 N5          6.5610    0.5430   -1.6870 n         1 MOL     -0.128586
     58 C19         6.6230    1.9210   -2.2270 c3        1 MOL     -0.094861
     59 C20         6.9510    2.9470   -1.1740 c         1 MOL      0.427643
     60 O10         7.2950    4.1090   -1.4080 o         1 MOL     -0.533771
     61 C21         5.3980    2.3890   -3.0480 c3        1 MOL     -0.282376
     62 C22         4.1670    2.0130   -2.2470 c         1 MOL      0.950995
     63 O11         3.1420    1.6150   -2.8080 o         1 MOL     -0.843111
     64 O12         4.0570    2.0810   -1.0190 o         1 MOL     -0.843111
     65 H26         5.6710    0.2720   -1.2940 hn        1 MOL      0.069154
     66 H27         7.4570    1.9160   -2.9380 h1        1 MOL      0.129511
     67 H28         5.4230    1.8850   -4.0170 hc        1 MOL      0.093160
     68 H29         5.4390    3.4570   -3.2440 hc        1 MOL      0.093160
     69 N6          6.9040    2.5420    0.1430 n         1 MOL     -0.266687
     70 C23         6.9060    3.3330    1.3610 c3        1 MOL     -0.019406
     71 C24         5.6070    4.1570    1.6160 c         1 MOL      0.545778
     72 O13         5.6580    5.2230    2.3070 o         1 MOL     -0.601700
     73 H30         6.5140    1.6150    0.2990 hn        1 MOL      0.227329
     74 H31         7.6560    4.1260    1.3840 h1        1 MOL      0.043299
     75 H32         7.0670    2.7200    2.2350 h1        1 MOL      0.043299
     76 N7          4.4640    3.6360    1.1180 n         1 MOL     -0.448469
     77 C25         3.1230    4.0740    1.4080 c3        1 MOL      0.078758
     78 C26         2.1190    2.8940    1.5590 c         1 MOL      0.466060
     79 O14         2.2540    1.8790    0.8940 o         1 MOL     -0.640314
     80 C27         2.6700    5.0110    0.2490 c3        1 MOL     -0.089504
     81 C28         3.3890    6.3250    0.2460 c3        1 MOL     -0.131416
     82 C29         2.7270    7.2540   -0.6940 c         1 MOL      0.638428
     83 N8          2.9440    7.0350   -1.9960 n         1 MOL     -0.839208
     84 O15         2.0480    8.2050   -0.3330 o         1 MOL     -0.578327
     85 H33         4.5240    2.8590    0.4680 hn        1 MOL      0.413605
     86 H34         3.1690    4.6590    2.3230 h1        1 MOL      0.059136
     87 H35         1.5880    5.1590    0.2750 hc        1 MOL      0.065567
     88 H36         2.9460    4.5190   -0.6780 hc        1 MOL      0.065567
     89 H37         4.4560    6.2510    0.0360 hc        1 MOL      0.062965
     90 H38         3.2230    6.7580    1.2290 hc        1 MOL      0.062965
     91 H39         3.3820    6.2090   -2.3730 hn        1 MOL      0.367847
     92 H40         2.6200    7.7570   -2.6240 hn        1 MOL      0.367847
     93 N9          1.1110    3.1230    2.4780 n         1 MOL     -0.501716
     94 C30        -0.0550    2.2540    2.4020 c3        1 MOL      0.159118
     95 C31        -1.0410    2.8590    1.3800 c         1 MOL      0.610746
     96 O16        -1.4970    3.9880    1.6380 o         1 MOL     -0.585202
     97 C32        -0.6990    2.1070    3.7920 c3        1 MOL      0.121441
     98 C33        -1.8480    1.1010    3.9940 c3        1 MOL     -0.214055
     99 C34         0.3140    1.8610    4.8960 c3        1 MOL     -0.214055
    100 H41         1.0390    4.0710    2.8160 hn        1 MOL      0.290218
    101 H42         0.2660    1.2520    2.1030 h1        1 MOL      0.149583
    102 H43        -1.0070    3.1080    4.0860 hc        1 MOL     -0.026275
    103 H44        -2.2850    1.1110    4.9890 hc        1 MOL      0.043692
    104 H45        -2.5930    1.3920    3.2430 hc        1 MOL      0.043692
    105 H46        -1.4710    0.0850    3.8880 hc        1 MOL      0.043692
    106 H47        -0.0520    1.7840    5.9170 hc        1 MOL      0.043692
    107 H48         0.8900    0.9680    4.6440 hc        1 MOL      0.043692
    108 H49         1.0680    2.6520    4.9640 hc        1 MOL      0.043692
    109 N10        -1.3740    2.0830    0.3070 n         1 MOL     -0.579271
    110 C35        -2.5290    2.4420   -0.5390 c3        1 MOL      0.288488
    111 C36        -3.8770    1.9130    0.1310 c         1 MOL      0.155669
    112 O17        -3.8570    1.0200    0.9980 o         1 MOL     -0.172921
    113 C37        -2.3340    1.7360   -1.9350 c3        1 MOL     -0.367510
    114 C38        -3.3730    2.1220   -2.9520 c         1 MOL      0.645121
    115 N11        -3.4860    3.3780   -3.2890 n         1 MOL     -0.744309
    116 O18        -4.1690    1.2630   -3.4340 o         1 MOL     -0.548773
    117 H50        -1.1360    1.0990    0.2650 hn        1 MOL      0.273680
    118 H51        -2.6660    3.5110   -0.7010 h1        1 MOL      0.022408
    119 H52        -2.2880    0.6540   -1.8750 hc        1 MOL      0.144862
    120 H53        -1.3830    2.0650   -2.3600 hc        1 MOL      0.144862
    121 H54        -2.8120    4.0410   -2.9370 hn        1 MOL      0.359709
    122 H55        -4.0640    3.4760   -4.1070 hn        1 MOL      0.359709
    123 N12        -4.9800    2.4450   -0.3220 n         1 MOL     -0.313053
    124 C39        -6.3060    1.9320    0.0280 c3        1 MOL      0.104131
    125 C40        -6.5210    0.3500   -0.0760 c         1 MOL      0.732060
    126 O19        -7.0960   -0.3020    0.8000 o         1 MOL     -0.588096
    127 C41        -7.3430    2.5830   -0.9610 c3        1 MOL     -0.243581
    128 C42        -8.7720    2.2160   -0.5820 ca        1 MOL     -0.041840
    129 C43        -9.3570    3.0170    0.4100 ca        1 MOL     -0.100976
    130 C44        -9.5200    1.1570   -1.1550 ca        1 MOL     -0.100976
    131 C45       -10.5340    2.6790    1.0530 ca        1 MOL     -0.343737
    132 C46       -10.8490    0.8350   -0.6410 ca        1 MOL     -0.343737
    133 C47       -11.2650    1.5470    0.5370 ca        1 MOL      0.442431
    134 O20       -12.4750    1.2780    1.0280 oh        1 MOL     -0.548915
    135 H56        -4.8850    3.1190   -1.0790 hn        1 MOL      0.212217
    136 H57        -6.5580    2.1120    1.0740 h1        1 MOL      0.045875
    137 H58        -7.1860    2.3490   -2.0170 hc        1 MOL      0.100527
    138 H59        -7.2730    3.6580   -0.7770 hc        1 MOL      0.100527
    139 H60        -8.8240    3.8900    0.7580 ha        1 MOL      0.133411
    140 H61        -9.1540    0.6170   -2.0180 ha        1 MOL      0.133411
    141 H62       -10.8260    3.2430    1.9220 ha        1 MOL      0.166986
    142 H63       -11.5570    0.1350   -1.0470 ha        1 MOL      0.166986
    143 H64       -12.9680    0.6020    0.5410 ho        1 MOL      0.387565
    144 N13        -6.0170   -0.3110   -1.1490 n         1 MOL     -0.363633
    145 C48        -6.1410   -1.7690   -1.4180 c3        1 MOL     -0.084039
    146 C49        -5.3860   -2.5440   -0.3150 c         1 MOL      0.339955
    147 O21        -5.6240   -3.7030    0.0060 o         1 MOL     -0.525234
    148 C50        -5.5580   -2.1610   -2.8490 c3        1 MOL      0.038116
    149 C51        -6.3140   -1.6620   -4.1030 c3        1 MOL     -0.269802
    150 C52        -5.8320   -2.3480   -5.3520 c         1 MOL      0.748783
    151 O22        -6.2480   -3.4630   -5.6170 o         1 MOL     -0.746248
    152 O23        -5.0930   -1.7070   -6.1630 o         1 MOL     -0.746248
    153 H65        -5.6640    0.2920   -1.8780 hn        1 MOL      0.193866
    154 H66        -7.1690   -2.0910   -1.2880 h1        1 MOL      0.110156
    155 H67        -5.4720   -3.2470   -2.8060 hc        1 MOL      0.044980
    156 H68        -4.5310   -1.8170   -2.9510 hc        1 MOL      0.044980
    157 H69        -6.1580   -0.5790   -4.1410 hc        1 MOL      0.038842
    158 H70        -7.3990   -1.7530   -3.9870 hc        1 MOL      0.038842
    159 N14        -4.4650   -1.8740    0.3320 n         1 MOL     -0.054931
    160 C53        -3.7270   -2.3960    1.4200 c3        1 MOL     -0.036922
    161 C54        -4.2920   -1.9720    2.8330 c         1 MOL      0.418950
    162 O24        -4.2980   -2.6980    3.7790 o         1 MOL     -0.573162
    163 C55        -2.2790   -1.9300    1.3550 c3        1 MOL      0.059040
    164 C56        -1.5280   -2.2330   -0.0500 c3        1 MOL      0.073113
    165 C57        -0.1180   -1.5520   -0.0770 c         1 MOL      0.639113
    166 O25         0.8450   -2.2330   -0.5260 o         1 MOL     -0.739290
    167 O26        -0.0680   -0.3760    0.2350 o         1 MOL     -0.739290
    168 H71        -4.2740   -0.9110    0.0970 hn        1 MOL      0.109017
    169 H72        -3.6470   -3.4760    1.4870 h1        1 MOL      0.074072
    170 H73        -1.7040   -2.4620    2.1120 hc        1 MOL      0.003750
    171 H74        -2.2370   -0.8690    1.5670 hc        1 MOL      0.003750
    172 H75        -2.2210   -1.8450   -0.7940 hc        1 MOL     -0.054024
    173 H76        -1.3460   -3.3040   -0.1110 hc        1 MOL     -0.054024
    174 N15        -4.9470   -0.8490    2.9100 n         1 MOL      0.023347
    175 C58        -5.7640   -0.4450    4.0920 c3        1 MOL     -0.240541
    176 H77        -6.0210   -1.3300    4.6750 h1        1 MOL      0.084129
    177 H78        -5.1910    0.2440    4.7130 h1        1 MOL      0.084129
    178 H79        -6.6770    0.0430    3.7540 h1        1 MOL      0.084129
    179 H80        -4.8280   -0.1940    2.1590 hn        1 MOL     -0.025406
    180 Ca1         2.2300    0.0160   -1.0940 Ca        1 MOL      1.798011
    181 O27         0.1900   -0.3410   -3.1880 oh        1 MOL     -0.866287
    182 H81         0.5370   -0.9640   -3.8170 ho        1 MOL      0.413645
    183 H82        -0.7560   -0.3460   -3.3500 ho        1 MOL      0.413645
@<TRIPOS>BOND
     1    1    2 1   
     2    1    4 1   
     3    1    5 1   
     4    1    6 1   
     5    2    3 2   
     6    2    7 1   
     7    7    8 1   
     8    7   15 1   
     9    8    9 1   
    10    8   11 1   
    11    8   16 1   
    12    9   10 2   
    13    9   19 1   
    14   11   12 1   
    15   11   17 1   
    16   11   18 1   
    17   12   13 1   
    18   12   14 1   
    19   19   20 1   
    20   19   27 1   
    21   20   21 1   
    22   20   23 1   
    23   20   28 1   
    24   21   22 2   
    25   21   38 1   
    26   23   24 1   
    27   23   25 1   
    28   23   29 1   
    29   24   26 1   
    30   24   30 1   
    31   24   31 1   
    32   25   32 1   
    33   25   33 1   
    34   25   34 1   
    35   26   35 1   
    36   26   36 1   
    37   26   37 1   
    38   38   39 1   
    39   38   46 1   
    40   39   40 1   
    41   39   42 1   
    42   39   47 1   
    43   40   41 2   
    44   40   50 1   
    45   42   43 1   
    46   42   48 1   
    47   42   49 1   
    48   43   44 1   
    49   43   45 1   
    50   50   51 1   
    51   50   54 1   
    52   51   52 1   
    53   51   55 1   
    54   51   56 1   
    55   52   53 2   
    56   52   57 1   
    57   57   58 1   
    58   57   65 1   
    59   58   59 1   
    60   58   61 1   
    61   58   66 1   
    62   59   60 2   
    63   59   69 1   
    64   61   62 1   
    65   61   67 1   
    66   61   68 1   
    67   62   63 1   
    68   62   64 1   
    69   69   70 1   
    70   69   73 1   
    71   70   71 1   
    72   70   74 1   
    73   70   75 1   
    74   71   72 2   
    75   71   76 1   
    76   76   77 1   
    77   76   85 1   
    78   77   78 1   
    79   77   80 1   
    80   77   86 1   
    81   78   79 2   
    82   78   93 1   
    83   80   81 1   
    84   80   87 1   
    85   80   88 1   
    86   81   82 1   
    87   81   89 1   
    88   81   90 1   
    89   82   83 1   
    90   82   84 2   
    91   83   91 1   
    92   83   92 1   
    93   93   94 1   
    94   93  100 1   
    95   94   95 1   
    96   94   97 1   
    97   94  101 1   
    98   95   96 2   
    99   95  109 1   
   100   97   98 1   
   101   97   99 1   
   102   97  102 1   
   103   98  103 1   
   104   98  104 1   
   105   98  105 1   
   106   99  106 1   
   107   99  107 1   
   108   99  108 1   
   109  109  110 1   
   110  109  117 1   
   111  110  111 1   
   112  110  113 1   
   113  110  118 1   
   114  111  112 2   
   115  111  123 1   
   116  113  114 1   
   117  113  119 1   
   118  113  120 1   
   119  114  115 1   
   120  114  116 2   
   121  115  121 1   
   122  115  122 1   
   123  123  124 1   
   124  123  135 1   
   125  124  125 1   
   126  124  127 1   
   127  124  136 1   
   128  125  126 2   
   129  125  144 1   
   130  127  128 1   
   131  127  137 1   
   132  127  138 1   
   133  128  129 ar  
   134  128  130 ar  
   135  129  131 ar  
   136  129  139 1   
   137  130  132 ar  
   138  130  140 1   
   139  131  133 ar  
   140  131  141 1   
   141  132  133 ar  
   142  132  142 1   
   143  133  134 1   
   144  134  143 1   
   145  144  145 1   
   146  144  153 1   
   147  145  146 1   
   148  145  148 1   
   149  145  154 1   
   150  146  147 2   
   151  146  159 1   
   152  148  149 1   
   153  148  155 1   
   154  148  156 1   
   155  149  150 1   
   156  149  157 1   
   157  149  158 1   
   158  150  151 1   
   159  150  152 1   
   160  159  160 1   
   161  159  168 1   
   162  160  161 1   
   163  160  163 1   
   164  160  169 1   
   165  161  162 2   
   166  161  174 1   
   167  163  164 1   
   168  163  170 1   
   169  163  171 1   
   170  164  165 1   
   171  164  172 1   
   172  164  173 1   
   173  165  166 1   
   174  165  167 1   
   175  174  175 1   
   176  174  179 1   
   177  175  176 1   
   178  175  177 1   
   179  175  178 1   
   180  181  182 1   
   181  181  183 1   
@<TRIPOS>SUBSTRUCTURE
     1 MOL         1 TEMP              0 ****  ****    0 ROOT
