@<TRIPOS>MOLECULE
MOL
  189   185     1     0     0
SMALL
resp


@<TRIPOS>ATOM
      1 C1         -0.1340    1.5750    6.4430 c3        1 MOL     -0.273692
      2 C2         -0.5100    1.4380    5.0320 c         1 MOL      0.773780
      3 O1          0.3700    1.7000    4.2130 o         1 MOL     -0.649398
      4 H1         -0.7780    2.3130    6.9200 hc        1 MOL      0.070726
      5 H2         -0.2500    0.6140    6.9450 hc        1 MOL      0.070726
      6 H3          0.9040    1.9000    6.5140 hc        1 MOL      0.070726
      7 N1         -1.6570    0.9130    4.6150 n         1 MOL     -0.629009
      8 C3         -2.2100    0.8760    3.1980 c3        1 MOL      0.305973
      9 C4         -2.5430    2.3400    2.8290 c         1 MOL      0.398501
     10 O2         -3.4470    2.9860    3.4080 o         1 MOL     -0.538848
     11 C5         -3.3790   -0.0520    3.0340 c3        1 MOL     -0.383754
     12 C6         -4.1540    0.0570    1.7410 c         1 MOL      0.841360
     13 O3         -5.3390   -0.4150    1.6180 o         1 MOL     -0.673754
     14 O4         -3.6380    0.5770    0.7600 o         1 MOL     -0.673754
     15 H4         -2.3320    0.5860    5.2860 hn        1 MOL      0.311260
     16 H5         -1.3580    0.4930    2.6320 h1        1 MOL     -0.098544
     17 H6         -4.0950    0.0320    3.8560 hc        1 MOL      0.091008
     18 H7         -2.8150   -0.9860    3.0470 hc        1 MOL      0.091008
     19 N2         -1.7860    2.9140    1.9090 n         1 MOL      0.029179
     20 C7         -1.6520    4.3670    1.8000 c3        1 MOL     -0.226241
     21 C8         -2.7870    4.9700    1.0220 c         1 MOL      0.631679
     22 O5         -3.0110    6.1800    1.0840 o         1 MOL     -0.587576
     23 C9         -0.1940    4.7920    1.3260 c3        1 MOL     -0.093337
     24 C10         0.0560    4.5020   -0.1440 c3        1 MOL     -0.014636
     25 C11         1.2570    5.2520   -0.6630 c3        1 MOL     -0.337002
     26 C12         1.7210    4.7010   -1.9770 c3        1 MOL      0.354025
     27 N3          0.6910    4.8530   -3.0150 n4        1 MOL     -0.332110
     28 H8         -1.0570    2.4130    1.4250 hn        1 MOL      0.055575
     29 H9         -1.7110    4.7220    2.8280 h1        1 MOL      0.116136
     30 H10         0.6280    4.2520    1.8060 hc        1 MOL      0.074747
     31 H11        -0.0030    5.8230    1.6270 hc        1 MOL      0.074747
     32 H12        -0.8030    4.6400   -0.8010 hc        1 MOL      0.055149
     33 H13         0.2010    3.4200   -0.2320 hc        1 MOL      0.055149
     34 H14         2.0610    4.9940    0.0130 hc        1 MOL      0.098474
     35 H15         1.1180    6.3290   -0.7210 hc        1 MOL      0.098474
     36 H16         2.1540    3.6990   -1.9130 hx        1 MOL     -0.059726
     37 H17         2.5600    5.3420   -2.2190 hx        1 MOL     -0.059726
     38 H18        -0.0010    4.1240   -2.9660 hn        1 MOL      0.296900
     39 H19         0.2520    5.7590   -2.9600 hn        1 MOL      0.296900
     40 H20         1.0860    4.8020   -3.9520 hn        1 MOL      0.296900
     41 N4         -3.4590    4.1450    0.2390 n         1 MOL     -0.483855
     42 C13        -4.2900    4.5810   -0.8440 c3        1 MOL      0.228696
     43 C14        -5.5790    3.7670   -0.8970 c         1 MOL      0.450989
     44 O6         -6.5050    4.3360   -1.4480 o         1 MOL     -0.547835
     45 C15        -3.5020    4.5760   -2.1980 c3        1 MOL     -0.508317
     46 C16        -2.5470    3.3970   -2.4160 c         1 MOL      1.069145
     47 O7         -1.6060    3.4470   -3.2000 o         1 MOL     -0.821208
     48 O8         -2.7450    2.3180   -1.7590 o         1 MOL     -0.821208
     49 H21        -3.1080    3.2020    0.3050 hn        1 MOL      0.130828
     50 H22        -4.6400    5.6020   -0.7120 h1        1 MOL      0.088682
     51 H23        -3.0940    5.5810   -2.2550 hc        1 MOL      0.114718
     52 H24        -4.2210    4.5430   -3.0210 hc        1 MOL      0.114718
     53 N5         -5.6630    2.6580   -0.1910 n         1 MOL     -0.110390
     54 C17        -6.9160    2.0610    0.2200 c3        1 MOL     -0.177870
     55 C18        -7.4880    0.9650   -0.6680 c         1 MOL      0.590835
     56 O9         -8.4820    1.2410   -1.3820 o         1 MOL     -0.575916
     57 H25        -4.8360    2.2820    0.2650 hn        1 MOL      0.177408
     58 H26        -7.7240    2.8000    0.2240 h1        1 MOL      0.082455
     59 H27        -6.8200    1.6330    1.2190 h1        1 MOL      0.082455
     60 N6         -6.8720   -0.1870   -0.7950 n         1 MOL     -0.403078
     61 C19        -7.1740   -1.2840   -1.6660 c3        1 MOL      0.204751
     62 C20        -7.2370   -2.5970   -0.9060 c         1 MOL      0.305391
     63 O10        -7.7690   -3.5720   -1.4510 o         1 MOL     -0.527264
     64 C21        -6.1360   -1.2950   -2.8050 c3        1 MOL     -0.307798
     65 C22        -4.7060   -1.0040   -2.3620 c         1 MOL      0.748147
     66 O11        -4.2870   -1.5970   -1.3310 o         1 MOL     -0.744247
     67 O12        -3.8920   -0.2940   -3.0920 o         1 MOL     -0.744247
     68 H28        -6.0020   -0.2780   -0.2850 hn        1 MOL      0.162662
     69 H29        -8.1080   -1.0040   -2.1320 h1        1 MOL      0.065714
     70 H30        -6.5230   -0.5240   -3.4610 hc        1 MOL      0.097982
     71 H31        -6.2820   -2.2780   -3.2290 hc        1 MOL      0.097982
     72 N7         -6.6950   -2.6390    0.2930 n         1 MOL     -0.126273
     73 C23        -6.5430   -3.7920    1.1880 c3        1 MOL     -0.146252
     74 C24        -5.1680   -4.6010    0.9560 c         1 MOL      0.534113
     75 O13        -5.0660   -5.6990    1.3650 o         1 MOL     -0.529905
     76 H32        -6.2220   -1.8030    0.6070 hn        1 MOL      0.162873
     77 H33        -7.3540   -4.5100    1.1150 h1        1 MOL      0.094592
     78 H34        -6.5740   -3.4070    2.2060 h1        1 MOL      0.094592
     79 N8         -4.2320   -3.9410    0.1960 n         1 MOL     -0.307991
     80 C25        -2.9310   -4.5610   -0.1460 c3        1 MOL     -0.124318
     81 C26        -1.7500   -3.6020    0.1450 c         1 MOL      0.610541
     82 O14        -1.7950   -2.4170   -0.1970 o         1 MOL     -0.650409
     83 C27        -2.7910   -5.0330   -1.5770 c3        1 MOL      0.535693
     84 C28        -3.7110   -6.2200   -1.9610 c3        1 MOL     -0.391163
     85 O15        -3.1260   -4.0290   -2.5400 oh        1 MOL     -0.692694
     86 H35        -4.4370   -2.9880   -0.0770 hn        1 MOL      0.226242
     87 H36        -2.7500   -5.4180    0.5080 h1        1 MOL      0.067763
     88 H37        -1.7630   -5.3690   -1.6710 h1        1 MOL     -0.051035
     89 H38        -3.5440   -3.3090   -2.0590 ho        1 MOL      0.491072
     90 H39        -4.7320   -5.8480   -1.9850 hc        1 MOL      0.099155
     91 H40        -3.3910   -6.6700   -2.9040 hc        1 MOL      0.099155
     92 H41        -3.6090   -7.0350   -1.2350 hc        1 MOL      0.099155
     93 N9         -0.6510   -4.1320    0.6640 n         1 MOL     -0.598398
     94 C29         0.6030   -3.4520    0.9150 c3        1 MOL      0.155184
     95 C30         1.7000   -3.8200   -0.1000 c         1 MOL      0.647986
     96 O16         2.0360   -4.9220   -0.3160 o         1 MOL     -0.574140
     97 C31         0.9140   -3.4920    2.3990 c3        1 MOL     -0.029466
     98 C32         0.0710   -2.4090    3.1270 c3        1 MOL      0.129833
     99 C33         2.4040   -3.2740    2.7160 c3        1 MOL     -0.253297
    100 C34         0.1280   -2.4920    4.6150 c3        1 MOL     -0.250692
    101 H42        -0.6680   -5.1420    0.7490 hn        1 MOL      0.312316
    102 H43         0.5100   -2.3830    0.7660 h1        1 MOL     -0.040880
    103 H44         0.6840   -4.4880    2.7680 hc        1 MOL      0.054130
    104 H45        -0.9740   -2.5240    2.8680 hc        1 MOL      0.036333
    105 H46         0.3820   -1.4290    2.7730 hc        1 MOL      0.036333
    106 H47         2.5390   -3.4700    3.7810 hc        1 MOL      0.054323
    107 H48         3.0540   -3.9070    2.1090 hc        1 MOL      0.054323
    108 H49         2.6940   -2.2330    2.6230 hc        1 MOL      0.054323
    109 H50         1.0860   -2.1070    4.9660 hc        1 MOL      0.057191
    110 H51        -0.6520   -1.8390    5.0000 hc        1 MOL      0.057191
    111 H52        -0.1190   -3.5020    4.9530 hc        1 MOL      0.057191
    112 N10         2.3090   -2.8200   -0.7570 n         1 MOL     -0.376749
    113 C35         3.5770   -2.8350   -1.6060 c3        1 MOL     -0.054763
    114 C36         4.8170   -2.8660   -0.7350 c         1 MOL      0.482258
    115 O17         4.7860   -2.3960    0.3690 o         1 MOL     -0.322673
    116 C37         3.5700   -1.6570   -2.5410 c3        1 MOL      0.209089
    117 C38         2.4860   -1.7720   -3.6370 c3        1 MOL     -0.225795
    118 O18         3.2810   -0.4480   -1.8310 oh        1 MOL     -0.638376
    119 H53         1.9140   -1.9030   -0.6460 hn        1 MOL      0.177896
    120 H54         3.5030   -3.7410   -2.2030 h1        1 MOL      0.087424
    121 H55         4.5450   -1.4960   -3.0030 h1        1 MOL      0.045208
    122 H56         2.3840   -0.4420   -1.5080 ho        1 MOL      0.441403
    123 H57         1.4940   -2.1130   -3.3380 hc        1 MOL      0.066523
    124 H58         2.4310   -0.7490   -4.0160 hc        1 MOL      0.066523
    125 H59         2.8410   -2.4190   -4.4350 hc        1 MOL      0.066523
    126 N11         5.9490   -3.2630   -1.2580 n         1 MOL     -0.444845
    127 C39         7.2650   -2.9040   -0.6510 c3        1 MOL     -0.064350
    128 C40         7.4530   -1.4710   -0.2580 c         1 MOL      0.435594
    129 O19         8.1980   -1.1960    0.6950 o         1 MOL     -0.518282
    130 C41         8.4120   -3.1950   -1.6200 c3        1 MOL      0.368066
    131 C42         8.4640   -4.6600   -2.0370 c3        1 MOL     -0.485871
    132 O20         8.3140   -2.4390   -2.8710 oh        1 MOL     -0.666179
    133 H60         5.9220   -3.5660   -2.2210 hn        1 MOL      0.268586
    134 H61         7.5770   -3.4700    0.2280 h1        1 MOL      0.110458
    135 H62         9.3330   -2.9260   -1.0980 h1        1 MOL      0.055176
    136 H63         8.3200   -3.1530   -3.5200 ho        1 MOL      0.411058
    137 H64         8.2410   -5.2480   -1.1360 hc        1 MOL      0.136039
    138 H65         7.7620   -4.8180   -2.8440 hc        1 MOL      0.136039
    139 H66         9.4880   -4.9300   -2.2940 hc        1 MOL      0.136039
    140 N12         6.9160   -0.5030   -1.0410 n         1 MOL     -0.167625
    141 C43         6.8750    0.9970   -0.8660 c3        1 MOL     -0.043607
    142 C44         6.2210    1.3610    0.4670 c         1 MOL      0.429147
    143 O21         6.7050    2.2350    1.1450 o         1 MOL     -0.523039
    144 C45         6.0710    1.6110   -2.0670 c3        1 MOL     -0.124433
    145 C46         5.6620    3.0590   -1.9230 c3        1 MOL      0.034757
    146 C47         6.8200    4.0290   -1.7190 c3        1 MOL     -0.057628
    147 C48         6.3400    5.4710   -1.8420 c3        1 MOL      0.174897
    148 N13         7.3100    6.4570   -1.4910 n4        1 MOL     -0.491077
    149 H67         6.4680   -0.9440   -1.8350 hn        1 MOL      0.161321
    150 H68         7.9120    1.3020   -0.7990 h1        1 MOL      0.089200
    151 H69         5.0980    1.1250   -2.1140 hc        1 MOL      0.068467
    152 H70         6.6840    1.4750   -2.9620 hc        1 MOL      0.068467
    153 H71         4.9890    3.1730   -1.0730 hc        1 MOL      0.018545
    154 H72         5.0670    3.3380   -2.7940 hc        1 MOL      0.018545
    155 H73         7.5660    3.8190   -2.4950 hc        1 MOL      0.027596
    156 H74         7.2540    3.9100   -0.7310 hc        1 MOL      0.027596
    157 H75         5.5170    5.5480   -1.1380 hx        1 MOL      0.036803
    158 H76         5.9770    5.6410   -2.8630 hx        1 MOL      0.036803
    159 H77         6.9560    7.3700   -1.7160 hn        1 MOL      0.368839
    160 H78         7.4240    6.3270   -0.4940 hn        1 MOL      0.368839
    161 H79         8.1940    6.3030   -1.9510 hn        1 MOL      0.368839
    162 N14         5.1300    0.7220    0.8130 n         1 MOL     -0.066639
    163 C49         4.3410    0.9670    2.0240 c3        1 MOL     -0.186273
    164 C50         4.7670    0.0880    3.2090 c         1 MOL      0.495987
    165 O22         4.6660    0.5460    4.3750 o         1 MOL     -0.547713
    166 C51         2.9050    0.5510    1.7660 c3        1 MOL     -0.096033
    167 C52         2.1060    1.5010    0.9210 c3        1 MOL      0.338740
    168 C53         0.8890    0.7360    0.2270 c         1 MOL      0.537866
    169 O23         1.0240   -0.2630   -0.5440 o         1 MOL     -0.612746
    170 O24        -0.2300    1.2530    0.4190 o         1 MOL     -0.612746
    171 H80         4.6950    0.0810    0.1660 hn        1 MOL      0.047620
    172 H81         4.3500    2.0100    2.3260 h1        1 MOL      0.094743
    173 H82         2.4000    0.4560    2.7370 hc        1 MOL      0.110818
    174 H83         2.9210   -0.4470    1.3540 hc        1 MOL      0.110818
    175 H84         2.6790    2.0490    0.1820 hc        1 MOL     -0.061692
    176 H85         1.7560    2.2650    1.6050 hc        1 MOL     -0.061692
    177 N15         5.3510   -1.0950    2.9910 n         1 MOL     -0.189492
    178 C54         5.7960   -2.0790    4.0320 c3        1 MOL     -0.171940
    179 H86         6.7590   -2.5010    3.7430 h1        1 MOL      0.092242
    180 H87         5.8940   -1.5730    4.9920 h1        1 MOL      0.092242
    181 H88         5.0600   -2.8780    4.1160 h1        1 MOL      0.092242
    182 H89         5.3660   -1.4090    2.0290 hn        1 MOL      0.125625
    183 Ca1        -1.9810    0.0440   -1.1990 Ca        1 MOL      1.764292
    184 O25        -1.1020   -1.9950   -3.1580 oh        1 MOL     -0.864798
    185 H90        -1.6930   -2.7270   -3.0130 ho        1 MOL      0.404261
    186 H91        -0.5460   -2.2710   -3.8830 ho        1 MOL      0.404261
    187 O26        -0.2130    1.2170   -3.0240 oh        1 MOL     -0.864798
    188 H92        -0.3440    0.7150   -3.8300 ho        1 MOL      0.404261
    189 H93        -0.5440    2.0930   -3.2390 ho        1 MOL      0.404261
@<TRIPOS>BOND
     1    1    2 1   
     2    1    4 1   
     3    1    5 1   
     4    1    6 1   
     5    2    3 2   
     6    2    7 1   
     7    7    8 1   
     8    7   15 1   
     9    8    9 1   
    10    8   11 1   
    11    8   16 1   
    12    9   10 2   
    13    9   19 1   
    14   11   12 1   
    15   11   17 1   
    16   11   18 1   
    17   12   13 1   
    18   12   14 1   
    19   19   20 1   
    20   19   28 1   
    21   20   21 1   
    22   20   23 1   
    23   20   29 1   
    24   21   22 2   
    25   21   41 1   
    26   23   24 1   
    27   23   30 1   
    28   23   31 1   
    29   24   25 1   
    30   24   32 1   
    31   24   33 1   
    32   25   26 1   
    33   25   34 1   
    34   25   35 1   
    35   26   27 1   
    36   26   36 1   
    37   26   37 1   
    38   27   38 1   
    39   27   39 1   
    40   27   40 1   
    41   41   42 1   
    42   41   49 1   
    43   42   43 1   
    44   42   45 1   
    45   42   50 1   
    46   43   44 2   
    47   43   53 1   
    48   45   46 1   
    49   45   51 1   
    50   45   52 1   
    51   46   47 1   
    52   46   48 1   
    53   53   54 1   
    54   53   57 1   
    55   54   55 1   
    56   54   58 1   
    57   54   59 1   
    58   55   56 2   
    59   55   60 1   
    60   60   61 1   
    61   60   68 1   
    62   61   62 1   
    63   61   64 1   
    64   61   69 1   
    65   62   63 2   
    66   62   72 1   
    67   64   65 1   
    68   64   70 1   
    69   64   71 1   
    70   65   66 1   
    71   65   67 1   
    72   72   73 1   
    73   72   76 1   
    74   73   74 1   
    75   73   77 1   
    76   73   78 1   
    77   74   75 2   
    78   74   79 1   
    79   79   80 1   
    80   79   86 1   
    81   80   81 1   
    82   80   83 1   
    83   80   87 1   
    84   81   82 2   
    85   81   93 1   
    86   83   84 1   
    87   83   85 1   
    88   83   88 1   
    89   84   90 1   
    90   84   91 1   
    91   84   92 1   
    92   85   89 1   
    93   93   94 1   
    94   93  101 1   
    95   94   95 1   
    96   94   97 1   
    97   94  102 1   
    98   95   96 2   
    99   95  112 1   
   100   97   98 1   
   101   97   99 1   
   102   97  103 1   
   103   98  100 1   
   104   98  104 1   
   105   98  105 1   
   106   99  106 1   
   107   99  107 1   
   108   99  108 1   
   109  100  109 1   
   110  100  110 1   
   111  100  111 1   
   112  112  113 1   
   113  112  119 1   
   114  113  114 1   
   115  113  116 1   
   116  113  120 1   
   117  114  115 2   
   118  114  126 1   
   119  116  117 1   
   120  116  118 1   
   121  116  121 1   
   122  117  123 1   
   123  117  124 1   
   124  117  125 1   
   125  118  122 1   
   126  126  127 1   
   127  126  133 1   
   128  127  128 1   
   129  127  130 1   
   130  127  134 1   
   131  128  129 2   
   132  128  140 1   
   133  130  131 1   
   134  130  132 1   
   135  130  135 1   
   136  131  137 1   
   137  131  138 1   
   138  131  139 1   
   139  132  136 1   
   140  140  141 1   
   141  140  149 1   
   142  141  142 1   
   143  141  144 1   
   144  141  150 1   
   145  142  143 2   
   146  142  162 1   
   147  144  145 1   
   148  144  151 1   
   149  144  152 1   
   150  145  146 1   
   151  145  153 1   
   152  145  154 1   
   153  146  147 1   
   154  146  155 1   
   155  146  156 1   
   156  147  148 1   
   157  147  157 1   
   158  147  158 1   
   159  148  159 1   
   160  148  160 1   
   161  148  161 1   
   162  162  163 1   
   163  162  171 1   
   164  163  164 1   
   165  163  166 1   
   166  163  172 1   
   167  164  165 2   
   168  164  177 1   
   169  166  167 1   
   170  166  173 1   
   171  166  174 1   
   172  167  168 1   
   173  167  175 1   
   174  167  176 1   
   175  168  169 1   
   176  168  170 1   
   177  177  178 1   
   178  177  182 1   
   179  178  179 1   
   180  178  180 1   
   181  178  181 1   
   182  184  185 1   
   183  184  186 1   
   184  187  188 1   
   185  187  189 1   
@<TRIPOS>SUBSTRUCTURE
     1 MOL         1 TEMP              0 ****  ****    0 ROOT
