@<TRIPOS>MOLECULE
MOL
  179   176     1     0     0
SMALL
resp


@<TRIPOS>ATOM
      1 C1          2.6490    2.0010    5.5070 c3        1 MOL     -0.211521
      2 C2          2.0890    2.0650    4.1090 c         1 MOL      0.777980
      3 O1          2.8000    2.3770    3.1640 o         1 MOL     -0.616356
      4 H1          3.7250    2.1730    5.4750 hc        1 MOL      0.052714
      5 H2          2.1770    2.7650    6.1240 hc        1 MOL      0.052714
      6 H3          2.4530    1.0170    5.9320 hc        1 MOL      0.052714
      7 N1          0.7090    1.8780    3.9870 n         1 MOL     -0.602813
      8 C3         -0.1980    1.9880    2.8470 c3        1 MOL      0.015069
      9 C4         -0.2160    3.4630    2.3200 c         1 MOL      0.507438
     10 O2         -0.6730    4.4130    3.0080 o         1 MOL     -0.561380
     11 C5         -1.6930    1.5770    3.2010 c3        1 MOL     -0.082271
     12 C6         -2.4710    1.4950    1.9250 c         1 MOL      0.720637
     13 O3         -1.9930    1.6110    0.7660 o         1 MOL     -0.671467
     14 O4         -3.6710    1.2560    2.1530 o         1 MOL     -0.671467
     15 H4          0.2870    1.6450    4.8740 hn        1 MOL      0.295961
     16 H5          0.1920    1.3360    2.0600 h1        1 MOL     -0.012804
     17 H6         -2.1460    2.2990    3.8820 hc        1 MOL      0.058379
     18 H7         -1.8280    0.6280    3.7000 hc        1 MOL      0.058379
     19 N2          0.1300    3.6940    1.0740 n         1 MOL     -0.244624
     20 C7          0.3600    5.0610    0.5320 c3        1 MOL      0.026736
     21 C8         -0.9620    5.5070   -0.1840 c         1 MOL      0.561797
     22 O5         -1.3770    6.5960    0.0600 o         1 MOL     -0.549300
     23 C9          1.6020    5.0670   -0.4790 c3        1 MOL     -0.229345
     24 C10         2.8640    5.5750    0.2050 c3        1 MOL      0.376640
     25 C11         3.9570    5.7650   -0.8450 c3        1 MOL     -0.078738
     26 C12         5.1510    6.2650   -0.0980 c3        1 MOL      0.019039
     27 N3          6.3000    6.4970   -0.9580 n4        1 MOL     -0.195078
     28 H8          0.5310    2.9130    0.5770 hn        1 MOL      0.187451
     29 H9          0.5840    5.8110    1.2940 h1        1 MOL      0.067563
     30 H10         1.3680    5.8830   -1.1680 hc        1 MOL      0.029112
     31 H11         1.7080    4.1020   -0.9640 hc        1 MOL      0.029112
     32 H12         3.1560    4.9140    1.0220 hc        1 MOL     -0.037432
     33 H13         2.6830    6.5320    0.7080 hc        1 MOL     -0.037432
     34 H14         3.6380    6.4870   -1.5950 hc        1 MOL      0.021580
     35 H15         4.1600    4.8440   -1.3860 hc        1 MOL      0.021580
     36 H16         5.1950    5.6080    0.7690 hx        1 MOL      0.063887
     37 H17         4.9250    7.2780    0.2450 hx        1 MOL      0.063887
     38 H18         6.2760    7.2690   -1.6110 hn        1 MOL      0.286361
     39 H19         7.1910    6.5960   -0.4870 hn        1 MOL      0.286361
     40 H20         6.4600    5.6840   -1.5400 hn        1 MOL      0.286361
     41 N4         -1.4860    4.7390   -1.1230 n         1 MOL     -0.433497
     42 C13        -2.7300    5.1600   -1.8510 c3        1 MOL      0.013505
     43 C14        -4.0530    4.9190   -1.1130 c         1 MOL      0.424659
     44 O6         -5.1060    5.4050   -1.4850 o         1 MOL     -0.521572
     45 C15        -2.7690    4.5170   -3.2340 c3        1 MOL     -0.022753
     46 C16        -2.6640    3.0000   -3.3090 c         1 MOL      0.732061
     47 O7         -2.3150    2.5360   -4.3950 o         1 MOL     -0.713486
     48 O8         -2.8860    2.3060   -2.2940 o         1 MOL     -0.713486
     49 H21        -1.2260    3.7750   -1.1950 hn        1 MOL      0.169600
     50 H22        -2.6860    6.2180   -2.1140 h1        1 MOL      0.112338
     51 H23        -1.9790    4.9280   -3.8720 hc        1 MOL      0.006341
     52 H24        -3.6930    4.9270   -3.6640 hc        1 MOL      0.006341
     53 N5         -4.0580    4.1400    0.0160 n         1 MOL     -0.121368
     54 C17        -5.2650    3.9600    0.8770 c3        1 MOL     -0.317896
     55 C18        -6.2000    2.8020    0.3260 c         1 MOL      0.590534
     56 O9         -7.3890    2.7370    0.7330 o         1 MOL     -0.549177
     57 H25        -3.3040    3.4940    0.2290 hn        1 MOL      0.165520
     58 H26        -5.8320    4.8910    0.8240 h1        1 MOL      0.152700
     59 H27        -4.9210    3.7020    1.8700 h1        1 MOL      0.152700
     60 N6         -5.7260    1.9060   -0.6330 n         1 MOL     -0.217768
     61 C19        -6.4920    0.8150   -1.1640 c3        1 MOL     -0.151217
     62 C20        -6.7060   -0.2840   -0.0810 c         1 MOL      0.406699
     63 O10        -7.7250   -1.0000   -0.0670 o         1 MOL     -0.500520
     64 C21        -6.0300    0.3970   -2.5710 c3        1 MOL     -0.115369
     65 C22        -4.8410   -0.6190   -2.4860 c         1 MOL      0.526363
     66 N7         -4.8820   -1.6780   -3.2250 n         1 MOL     -0.685299
     67 O11        -3.8060   -0.4800   -1.7910 o         1 MOL     -0.536325
     68 H28        -4.7290    1.8590   -0.7560 hn        1 MOL      0.094228
     69 H29        -7.4950    1.2040   -1.3730 h1        1 MOL      0.139611
     70 H30        -5.8000    1.2650   -3.1780 hc        1 MOL      0.097147
     71 H31        -6.8690   -0.0280   -3.1240 hc        1 MOL      0.097147
     72 H32        -5.7460   -1.8420   -3.7120 hn        1 MOL      0.352410
     73 H33        -4.1950   -2.4070   -3.0980 hn        1 MOL      0.352410
     74 N8         -5.9530   -0.1960    1.0370 n         1 MOL     -0.025271
     75 C23        -6.0260   -1.1800    2.1790 c3        1 MOL     -0.324246
     76 C24        -5.1160   -2.4010    2.0200 c         1 MOL      0.559373
     77 O12        -5.3960   -3.5270    2.4920 o         1 MOL     -0.511810
     78 H34        -5.1260    0.3770    1.0750 hn        1 MOL      0.126357
     79 H35        -7.0110   -1.6320    2.2900 h1        1 MOL      0.141150
     80 H36        -5.8830   -0.6520    3.1250 h1        1 MOL      0.141150
     81 N9         -4.0020   -2.1550    1.3160 n         1 MOL     -0.431994
     82 C25        -2.9190   -3.1780    1.0890 c3        1 MOL      0.219769
     83 C26        -1.6240   -2.4760    1.0390 c         1 MOL      0.486842
     84 O13        -1.5580   -1.4030    0.4200 o         1 MOL     -0.714075
     85 C27        -3.1280   -3.9880   -0.2230 c3        1 MOL      0.331917
     86 C28        -4.3950   -4.8270   -0.3520 ca        1 MOL     -0.342133
     87 C29        -5.5560   -4.2160   -0.8280 ca        1 MOL     -0.046087
     88 C30        -4.4760   -6.1360    0.1590 ca        1 MOL     -0.046087
     89 C31        -6.7480   -4.9420   -0.9350 ca        1 MOL     -0.169264
     90 C32        -5.6550   -6.8630    0.1050 ca        1 MOL     -0.169264
     91 C33        -6.8160   -6.2900   -0.4270 ca        1 MOL      0.240949
     92 O14        -8.0420   -6.8280   -0.3570 oh        1 MOL     -0.432048
     93 H37        -3.8850   -1.2850    0.8220 hn        1 MOL      0.248263
     94 H38        -2.9800   -3.8940    1.9030 h1        1 MOL     -0.006073
     95 H39        -2.2280   -4.5730   -0.4050 hc        1 MOL     -0.046949
     96 H40        -3.0580   -3.2700   -1.0430 hc        1 MOL     -0.046949
     97 H41        -5.5670   -3.1900   -1.1660 ha        1 MOL      0.090345
     98 H42        -3.5760   -6.6070    0.5240 ha        1 MOL      0.090345
     99 H43        -7.5690   -4.4110   -1.3910 ha        1 MOL      0.107293
    100 H44        -5.7660   -7.9120    0.3690 ha        1 MOL      0.107293
    101 H45        -8.0030   -7.6940    0.0690 ho        1 MOL      0.356159
    102 N10        -0.6350   -3.1730    1.4450 n         1 MOL     -0.489481
    103 C34         0.7360   -2.6700    1.4880 c3        1 MOL      0.059769
    104 C35         1.5300   -3.6120    0.6830 c         1 MOL      0.476153
    105 O15         1.5570   -4.7880    0.9650 o         1 MOL     -0.562971
    106 C36         1.2740   -2.6250    2.9300 c3        1 MOL      0.310727
    107 C37         0.5190   -1.7250    3.8390 c3        1 MOL      0.080740
    108 C38         2.7350   -2.2010    2.8950 c3        1 MOL     -0.296422
    109 C39         0.7030   -2.1800    5.2970 c3        1 MOL     -0.373054
    110 H46        -0.7710   -3.9540    2.0670 hn        1 MOL      0.298629
    111 H47         0.8590   -1.6240    1.2020 h1        1 MOL      0.092604
    112 H48         1.2070   -3.6530    3.3030 hc        1 MOL     -0.050882
    113 H49        -0.5320   -1.7890    3.5580 hc        1 MOL     -0.000947
    114 H50         0.9230   -0.7260    3.7250 hc        1 MOL     -0.000947
    115 H51         3.3560   -2.7640    2.2080 hc        1 MOL      0.045994
    116 H52         2.8590   -1.1180    2.8650 hc        1 MOL      0.045994
    117 H53         3.1670   -2.4360    3.8620 hc        1 MOL      0.045994
    118 H54         0.3620   -3.2090    5.4480 hc        1 MOL      0.090294
    119 H55         1.7740   -2.2310    5.5090 hc        1 MOL      0.090294
    120 H56         0.0990   -1.6100    6.0100 hc        1 MOL      0.090294
    121 N11         2.2400   -3.0810   -0.2570 n         1 MOL     -0.082231
    122 C40         3.1570   -3.7670   -1.1870 c3        1 MOL     -0.074444
    123 C41         4.6120   -3.8360   -0.8780 c         1 MOL      0.497982
    124 O16         5.0110   -3.1000    0.0140 o         1 MOL     -0.403289
    125 C42         2.8960   -3.1950   -2.5820 c3        1 MOL     -0.157375
    126 O17         3.2790   -1.7700   -2.5370 oh        1 MOL     -0.537779
    127 H57         2.0290   -2.1380   -0.5420 hn        1 MOL      0.091896
    128 H58         2.8560   -4.8160   -1.2070 h1        1 MOL      0.062186
    129 H59         1.8500   -3.2610   -2.8930 h1        1 MOL      0.122245
    130 H60         3.5210   -3.6430   -3.3460 h1        1 MOL      0.122245
    131 H61         2.5400   -1.2140   -2.2540 ho        1 MOL      0.379725
    132 N12         5.4770   -4.5980   -1.5610 n         1 MOL     -0.456021
    133 C43         6.9190   -4.5610   -1.3040 c3        1 MOL      0.195899
    134 C44         7.5190   -3.0990   -1.3690 c         1 MOL      0.431755
    135 O18         8.4410   -2.8780   -0.6280 o         1 MOL     -0.508479
    136 C45         7.7250   -5.4760   -2.2410 c3        1 MOL     -0.319436
    137 H62         5.0550   -5.2570   -2.2110 hn        1 MOL      0.281017
    138 H63         6.9800   -4.9130   -0.2710 h1        1 MOL      0.056132
    139 H64         7.4400   -6.5210   -2.1100 hc        1 MOL      0.099530
    140 H65         7.6520   -5.0710   -3.2460 hc        1 MOL      0.099530
    141 H66         8.7110   -5.3780   -1.7800 hc        1 MOL      0.099530
    142 N13         7.1190   -2.2450   -2.3060 n         1 MOL     -0.359882
    143 C46         7.6410   -0.8760   -2.3490 c3        1 MOL      0.161318
    144 C47         7.1950   -0.0220   -1.1380 c         1 MOL      0.295202
    145 O19         7.9290    0.8050   -0.6290 o         1 MOL     -0.493448
    146 C48         7.0860   -0.1890   -3.5560 c3        1 MOL     -0.407009
    147 H67         6.4210   -2.5630   -2.9650 hn        1 MOL      0.272741
    148 H68         8.7290   -0.9760   -2.3710 h1        1 MOL      0.092373
    149 H69         7.0210    0.8810   -3.3540 hc        1 MOL      0.108385
    150 H70         7.8180   -0.3250   -4.3470 hc        1 MOL      0.108385
    151 H71         6.0790   -0.4630   -3.8850 hc        1 MOL      0.108385
    152 N14         5.9160   -0.1920   -0.7150 n         1 MOL     -0.017915
    153 C49         5.2880    0.5950    0.3480 c3        1 MOL     -0.236456
    154 C50         6.0720    0.3200    1.6240 c         1 MOL      0.460175
    155 O20         6.3360    1.2310    2.4010 o         1 MOL     -0.521848
    156 C51         3.7540    0.3120    0.3190 c3        1 MOL      0.126828
    157 C52         3.1170    1.0420   -0.9080 c3        1 MOL     -0.090273
    158 C53         1.6610    0.6840   -0.9570 c         1 MOL      0.634303
    159 O21         0.7430    1.5200   -0.7410 o         1 MOL     -0.616898
    160 O22         1.3360   -0.4980   -1.2420 o         1 MOL     -0.616898
    161 H72         5.3720   -0.9360   -1.1300 hn        1 MOL      0.133682
    162 H73         5.4170    1.6750    0.2520 h1        1 MOL      0.131773
    163 H74         3.2250    0.5430    1.2470 hc        1 MOL      0.024238
    164 H75         3.5140   -0.7390    0.1500 hc        1 MOL      0.024238
    165 H76         3.5490    0.5710   -1.7930 hc        1 MOL     -0.019728
    166 H77         3.3410    2.1020   -0.8270 hc        1 MOL     -0.019728
    167 N15         6.4770   -0.9860    1.8270 n         1 MOL     -0.052397
    168 C54         7.3370   -1.5450    2.8810 c3        1 MOL     -0.372773
    169 H78         7.1350   -1.0350    3.8230 h1        1 MOL      0.133831
    170 H79         7.1300   -2.6090    2.9940 h1        1 MOL      0.133831
    171 H80         8.3830   -1.4040    2.6090 h1        1 MOL      0.133831
    172 H81         6.1720   -1.6820    1.1600 hn        1 MOL      0.103179
    173 Ca1        -1.3890    0.3820   -1.3230 Ca        1 MOL      1.672455
    174 O23        -0.8400   -1.5590   -3.0320 oh        1 MOL     -0.812128
    175 H82        -1.0390   -2.4720   -3.2150 ho        1 MOL      0.398000
    176 H83        -0.0690   -1.3600   -3.5580 ho        1 MOL      0.398000
    177 O24        -0.1030    1.2660   -3.6450 oh        1 MOL     -0.812128
    178 H84         0.6070    1.9150   -3.6220 ho        1 MOL      0.398000
    179 H85        -0.7560    1.6420   -4.2350 ho        1 MOL      0.398000
@<TRIPOS>BOND
     1    1    2 1   
     2    1    4 1   
     3    1    5 1   
     4    1    6 1   
     5    2    3 2   
     6    2    7 1   
     7    7    8 1   
     8    7   15 1   
     9    8    9 1   
    10    8   11 1   
    11    8   16 1   
    12    9   10 2   
    13    9   19 1   
    14   11   12 1   
    15   11   17 1   
    16   11   18 1   
    17   12   13 1   
    18   12   14 1   
    19   19   20 1   
    20   19   28 1   
    21   20   21 1   
    22   20   23 1   
    23   20   29 1   
    24   21   22 2   
    25   21   41 1   
    26   23   24 1   
    27   23   30 1   
    28   23   31 1   
    29   24   25 1   
    30   24   32 1   
    31   24   33 1   
    32   25   26 1   
    33   25   34 1   
    34   25   35 1   
    35   26   27 1   
    36   26   36 1   
    37   26   37 1   
    38   27   38 1   
    39   27   39 1   
    40   27   40 1   
    41   41   42 1   
    42   41   49 1   
    43   42   43 1   
    44   42   45 1   
    45   42   50 1   
    46   43   44 2   
    47   43   53 1   
    48   45   46 1   
    49   45   51 1   
    50   45   52 1   
    51   46   47 1   
    52   46   48 1   
    53   53   54 1   
    54   53   57 1   
    55   54   55 1   
    56   54   58 1   
    57   54   59 1   
    58   55   56 2   
    59   55   60 1   
    60   60   61 1   
    61   60   68 1   
    62   61   62 1   
    63   61   64 1   
    64   61   69 1   
    65   62   63 2   
    66   62   74 1   
    67   64   65 1   
    68   64   70 1   
    69   64   71 1   
    70   65   66 1   
    71   65   67 2   
    72   66   72 1   
    73   66   73 1   
    74   74   75 1   
    75   74   78 1   
    76   75   76 1   
    77   75   79 1   
    78   75   80 1   
    79   76   77 2   
    80   76   81 1   
    81   81   82 1   
    82   81   93 1   
    83   82   83 1   
    84   82   85 1   
    85   82   94 1   
    86   83   84 2   
    87   83  102 1   
    88   85   86 1   
    89   85   95 1   
    90   85   96 1   
    91   86   87 ar  
    92   86   88 ar  
    93   87   89 ar  
    94   87   97 1   
    95   88   90 ar  
    96   88   98 1   
    97   89   91 ar  
    98   89   99 1   
    99   90   91 ar  
   100   90  100 1   
   101   91   92 1   
   102   92  101 1   
   103  102  103 1   
   104  102  110 1   
   105  103  104 1   
   106  103  106 1   
   107  103  111 1   
   108  104  105 2   
   109  104  121 1   
   110  106  107 1   
   111  106  108 1   
   112  106  112 1   
   113  107  109 1   
   114  107  113 1   
   115  107  114 1   
   116  108  115 1   
   117  108  116 1   
   118  108  117 1   
   119  109  118 1   
   120  109  119 1   
   121  109  120 1   
   122  121  122 1   
   123  121  127 1   
   124  122  123 1   
   125  122  125 1   
   126  122  128 1   
   127  123  124 2   
   128  123  132 1   
   129  125  126 1   
   130  125  129 1   
   131  125  130 1   
   132  126  131 1   
   133  132  133 1   
   134  132  137 1   
   135  133  134 1   
   136  133  136 1   
   137  133  138 1   
   138  134  135 2   
   139  134  142 1   
   140  136  139 1   
   141  136  140 1   
   142  136  141 1   
   143  142  143 1   
   144  142  147 1   
   145  143  144 1   
   146  143  146 1   
   147  143  148 1   
   148  144  145 2   
   149  144  152 1   
   150  146  149 1   
   151  146  150 1   
   152  146  151 1   
   153  152  153 1   
   154  152  161 1   
   155  153  154 1   
   156  153  156 1   
   157  153  162 1   
   158  154  155 2   
   159  154  167 1   
   160  156  157 1   
   161  156  163 1   
   162  156  164 1   
   163  157  158 1   
   164  157  165 1   
   165  157  166 1   
   166  158  159 1   
   167  158  160 1   
   168  167  168 1   
   169  167  172 1   
   170  168  169 1   
   171  168  170 1   
   172  168  171 1   
   173  174  175 1   
   174  174  176 1   
   175  177  178 1   
   176  177  179 1   
@<TRIPOS>SUBSTRUCTURE
     1 MOL         1 TEMP              0 ****  ****    0 ROOT
