@<TRIPOS>MOLECULE
MOL
  183   181     1     0     0
SMALL
resp


@<TRIPOS>ATOM
      1 C1         -0.8320    1.8760    6.2730 c3        1 MOL     -0.306280
      2 C2         -1.2500    2.0390    4.7900 c         1 MOL      0.834656
      3 O1         -0.5670    2.6660    4.0100 o         1 MOL     -0.653663
      4 H1         -1.0820    0.8710    6.6120 hc        1 MOL      0.069019
      5 H2          0.2420    2.0340    6.3690 hc        1 MOL      0.069019
      6 H3         -1.3630    2.6060    6.8840 hc        1 MOL      0.069019
      7 N1         -2.2850    1.3460    4.2920 n         1 MOL     -0.776532
      8 C3         -2.7750    1.3150    2.8960 c3        1 MOL      0.449000
      9 C4         -3.2180    2.7130    2.4500 c         1 MOL      0.424780
     10 O2         -4.0400    3.3940    3.1450 o         1 MOL     -0.575968
     11 C5         -3.9270    0.3010    2.8130 c3        1 MOL     -0.386466
     12 C6         -4.5520    0.3130    1.4600 c         1 MOL      0.751928
     13 O3         -5.8040    0.2940    1.4260 o         1 MOL     -0.619926
     14 O4         -3.8010    0.6550    0.5130 o         1 MOL     -0.619926
     15 H4         -2.6620    0.6840    4.9660 hn        1 MOL      0.323170
     16 H5         -1.9450    0.9470    2.2940 h1        1 MOL     -0.026944
     17 H6         -4.6370    0.6430    3.5710 hc        1 MOL      0.062199
     18 H7         -3.5430   -0.6790    3.0890 hc        1 MOL      0.062199
     19 N2         -2.6350    3.1820    1.3200 n         1 MOL     -0.191623
     20 C7         -2.8420    4.4700    0.7770 c3        1 MOL      0.139647
     21 C8         -3.5570    4.4890   -0.5420 c         1 MOL      0.182039
     22 O5         -4.1660    5.5270   -0.9370 o         1 MOL     -0.541559
     23 C9         -1.5010    5.1620    0.5270 c3        1 MOL      0.186582
     24 C10        -0.5630    4.9970    1.7910 c3        1 MOL     -0.027412
     25 C11        -1.6150    6.6670    0.1190 c3        1 MOL     -0.273002
     26 C12         0.7570    5.7060    1.6970 c3        1 MOL     -0.075022
     27 H8         -2.0570    2.5720    0.7530 hn        1 MOL      0.112387
     28 H9         -3.4170    5.0200    1.5150 h1        1 MOL      0.045477
     29 H10        -0.8400    4.6980   -0.2080 hc        1 MOL      0.004669
     30 H11        -0.1940    3.9790    1.8990 hc        1 MOL      0.013852
     31 H12        -1.1170    5.3290    2.6620 hc        1 MOL      0.013852
     32 H13        -2.1360    6.7860   -0.8370 hc        1 MOL      0.053330
     33 H14        -2.3310    7.1680    0.7670 hc        1 MOL      0.053330
     34 H15        -0.6940    7.2410    0.0390 hc        1 MOL      0.053330
     35 H16         1.3170    5.5530    0.7740 hc        1 MOL      0.007166
     36 H17         0.6620    6.7880    1.6760 hc        1 MOL      0.007166
     37 H18         1.3820    5.4450    2.5550 hc        1 MOL      0.007166
     38 N3         -3.6850    3.4110   -1.3310 n         1 MOL      0.042831
     39 C13        -4.5450    3.3300   -2.5010 c3        1 MOL     -0.011368
     40 C14        -5.9820    3.1830   -2.0430 c         1 MOL      0.343282
     41 O6         -6.8770    3.5870   -2.8210 o         1 MOL     -0.549682
     42 C15        -4.3000    2.0840   -3.3600 c3        1 MOL      0.020219
     43 C16        -2.9170    1.8060   -3.6540 c         1 MOL      0.623133
     44 O7         -2.4810    2.0030   -4.8020 o         1 MOL     -0.676543
     45 O8         -2.1650    1.4550   -2.6930 o         1 MOL     -0.676543
     46 H19        -3.1930    2.5780   -1.0480 hn        1 MOL     -0.027867
     47 H20        -4.4080    4.1760   -3.1720 h1        1 MOL      0.085753
     48 H21        -4.9260    2.1890   -4.2430 hc        1 MOL     -0.011792
     49 H22        -4.6710    1.1910   -2.8510 hc        1 MOL     -0.011792
     50 N4         -6.2790    2.6480   -0.9000 n         1 MOL     -0.058830
     51 C17        -7.5720    2.1660   -0.4780 c3        1 MOL     -0.415898
     52 C18        -7.9710    0.8180   -1.0480 c         1 MOL      0.689221
     53 O9         -9.0810    0.6840   -1.4520 o         1 MOL     -0.611180
     54 H23        -5.5450    2.4480   -0.2390 hn        1 MOL      0.201050
     55 H24        -8.3170    2.8520   -0.8650 h1        1 MOL      0.143698
     56 H25        -7.3900    2.0690    0.5950 h1        1 MOL      0.143698
     57 N5         -7.0280   -0.1370   -1.1890 n         1 MOL     -0.230718
     58 C19        -7.2900   -1.4440   -1.8390 c3        1 MOL     -0.050000
     59 C20        -7.3950   -2.5630   -0.8550 c         1 MOL      0.370808
     60 O10        -7.7610   -3.6350   -1.3260 o         1 MOL     -0.527138
     61 C21        -6.1990   -1.7720   -2.8980 c3        1 MOL     -0.054089
     62 C22        -4.7760   -1.5960   -2.3970 c         1 MOL      0.732295
     63 O11        -3.8100   -1.2540   -3.1320 o         1 MOL     -0.762215
     64 O12        -4.4580   -2.0220   -1.2840 o         1 MOL     -0.762215
     65 H26        -6.1270    0.1180   -0.8150 hn        1 MOL      0.071999
     66 H27        -8.2310   -1.4150   -2.3970 h1        1 MOL      0.111047
     67 H28        -6.2490   -1.0930   -3.7400 hc        1 MOL      0.029783
     68 H29        -6.3700   -2.7750   -3.2900 hc        1 MOL      0.029783
     69 N6         -7.1390   -2.3640    0.4540 n         1 MOL     -0.127834
     70 C23        -7.0950   -3.4350    1.4120 c3        1 MOL     -0.100692
     71 C24        -5.8200   -4.2970    1.3790 c         1 MOL      0.531760
     72 O13        -5.8750   -5.4640    1.7850 o         1 MOL     -0.576313
     73 H30        -6.9520   -1.4110    0.7460 hn        1 MOL      0.136847
     74 H31        -7.9780   -4.0550    1.2630 h1        1 MOL      0.057423
     75 H32        -7.1220   -3.0120    2.4160 h1        1 MOL      0.057423
     76 N7         -4.6650   -3.6710    1.0620 n         1 MOL     -0.209387
     77 C25        -3.3370   -4.1990    1.3010 c3        1 MOL     -0.025198
     78 C26        -2.2320   -3.1110    1.3500 c         1 MOL      0.441026
     79 O14        -2.4360   -1.9730    0.9600 o         1 MOL     -0.592862
     80 C27        -2.9040   -5.2170    0.2000 c3        1 MOL     -0.189296
     81 C28        -3.0870   -4.8880   -1.3400 c3        1 MOL     -0.097950
     82 C29        -2.0480   -3.9540   -2.0550 c         1 MOL      0.404160
     83 N8         -1.8870   -4.0470   -3.3050 n         1 MOL     -0.629322
     84 O15        -1.3150   -3.2810   -1.4590 o         1 MOL     -0.402108
     85 H33        -4.7520   -2.7620    0.6190 hn        1 MOL      0.207514
     86 H34        -3.3730   -4.6290    2.3040 h1        1 MOL      0.062449
     87 H35        -3.5000   -6.1150    0.4130 hc        1 MOL      0.058154
     88 H36        -1.8730   -5.5530    0.3060 hc        1 MOL      0.058154
     89 H37        -4.1020   -4.5110   -1.4570 hc        1 MOL      0.090024
     90 H38        -3.2830   -5.8370   -1.8390 hc        1 MOL      0.090024
     91 H39        -2.3440   -4.7720   -3.8390 hn        1 MOL      0.322617
     92 H40        -1.2120   -3.4050   -3.6790 hn        1 MOL      0.322617
     93 N9         -1.0550   -3.4940    1.9060 n         1 MOL     -0.216171
     94 C30         0.1060   -2.6910    2.1450 c3        1 MOL      0.009204
     95 C31         1.1830   -3.2440    1.2850 c         1 MOL      0.275907
     96 O16         1.6990   -4.3510    1.4730 o         1 MOL     -0.560725
     97 C32         0.5650   -2.7230    3.5990 c3        1 MOL      0.227602
     98 C33         1.5670   -1.5830    3.8670 c3        1 MOL     -0.190218
     99 C34        -0.5870   -2.4480    4.5030 c3        1 MOL     -0.190218
    100 H41        -0.9630   -4.4510    2.2170 hn        1 MOL      0.227147
    101 H42        -0.1020   -1.6790    1.8030 h1        1 MOL      0.172079
    102 H43         0.9930   -3.6930    3.8300 hc        1 MOL     -0.012234
    103 H44         2.5090   -1.8140    3.3740 hc        1 MOL      0.024293
    104 H45         1.1050   -0.6480    3.5470 hc        1 MOL      0.024293
    105 H46         1.8200   -1.5390    4.9300 hc        1 MOL      0.024293
    106 H47        -0.2960   -2.3130    5.5460 hc        1 MOL      0.024293
    107 H48        -1.1660   -1.5680    4.2450 hc        1 MOL      0.024293
    108 H49        -1.2890   -3.2870    4.4530 hc        1 MOL      0.024293
    109 N10         1.5460   -2.5440    0.2450 n         1 MOL     -0.046273
    110 C35         2.7500   -2.8700   -0.5540 c3        1 MOL      0.247677
    111 C36         3.9910   -2.3230    0.1240 c         1 MOL      0.389254
    112 O17         3.8630   -1.4880    0.9710 o         1 MOL     -0.300254
    113 C37         2.6150   -2.5140   -1.9560 c3        1 MOL     -0.325679
    114 C38         3.2040   -1.1150   -2.3020 c         1 MOL      0.523269
    115 N11         2.5900    0.0060   -1.8610 n         1 MOL     -0.548030
    116 O18         4.2940   -1.0560   -2.8120 o         1 MOL     -0.515538
    117 H50         1.1220   -1.7000   -0.1290 hn        1 MOL     -0.123735
    118 H51         2.8180   -3.9560   -0.4570 h1        1 MOL      0.015637
    119 H52         1.5470   -2.5020   -2.1740 hc        1 MOL      0.087454
    120 H53         3.1990   -3.2500   -2.5190 hc        1 MOL      0.087454
    121 H54         1.6310   -0.0770   -1.5550 hn        1 MOL      0.338105
    122 H55         2.9720    0.8920   -2.1530 hn        1 MOL      0.338105
    123 N12         5.1120   -2.7560   -0.3480 n         1 MOL     -0.568942
    124 C39         6.4440   -2.1870    0.1350 c3        1 MOL      0.254437
    125 C40         6.5860   -0.6470    0.2190 c         1 MOL      0.353373
    126 O19         7.1700   -0.1390    1.1970 o         1 MOL     -0.541625
    127 C41         7.5650   -2.7530   -0.7250 c3        1 MOL     -0.240330
    128 C42         8.9410   -2.1250   -0.6400 ca        1 MOL      0.156896
    129 C43         9.9210   -2.5530    0.3080 ca        1 MOL     -0.273764
    130 C44         9.3540   -1.0750   -1.5510 ca        1 MOL     -0.273764
    131 C45        11.1330   -1.8700    0.4420 ca        1 MOL     -0.159063
    132 C46        10.6310   -0.4890   -1.4970 ca        1 MOL     -0.159063
    133 C47        11.4970   -0.8530   -0.4930 ca        1 MOL      0.288198
    134 O20        12.6990   -0.2740   -0.3360 oh        1 MOL     -0.536207
    135 H56         5.1170   -3.2040   -1.2510 hn        1 MOL      0.304732
    136 H57         6.6390   -2.5910    1.1240 h1        1 MOL      0.055121
    137 H58         7.1990   -2.7710   -1.7540 hc        1 MOL      0.064801
    138 H59         7.7400   -3.7670   -0.3570 hc        1 MOL      0.064801
    139 H60         9.6140   -3.3330    0.9900 ha        1 MOL      0.150242
    140 H61         8.6640   -0.6140   -2.2340 ha        1 MOL      0.150242
    141 H62        11.8920   -2.1050    1.1730 ha        1 MOL      0.118961
    142 H63        10.9090    0.2100   -2.2630 ha        1 MOL      0.118961
    143 H64        12.8610    0.3800   -1.0260 ho        1 MOL      0.394073
    144 N13         6.0590    0.0880   -0.6890 n         1 MOL      0.033278
    145 C48         6.2190    1.5300   -0.6690 c3        1 MOL      0.272157
    146 C49         5.3370    2.2440    0.4340 c         1 MOL      0.161459
    147 O21         5.6750    3.2730    1.0650 o         1 MOL     -0.496227
    148 C50         5.9970    2.0990   -2.0790 c3        1 MOL      0.023715
    149 C51         7.1840    1.7780   -3.0430 c3        1 MOL     -0.236515
    150 C52         6.9910    2.4160   -4.3830 c         1 MOL      0.757191
    151 O22         6.3800    3.5200   -4.4640 o         1 MOL     -0.755507
    152 O23         7.5100    1.9580   -5.4330 o         1 MOL     -0.755507
    153 H65         5.4840   -0.2530   -1.4390 hn        1 MOL      0.154038
    154 H66         7.2300    1.7220   -0.3280 h1        1 MOL     -0.006521
    155 H67         6.0020    3.1800   -1.9030 hc        1 MOL      0.008834
    156 H68         5.0800    1.7220   -2.5190 hc        1 MOL      0.008834
    157 H69         7.1230    0.7130   -3.2580 hc        1 MOL      0.017551
    158 H70         8.1500    2.0750   -2.6220 hc        1 MOL      0.017551
    159 N14         4.2070    1.6730    0.6280 n         1 MOL      0.131521
    160 C53         3.3080    2.1440    1.7450 c3        1 MOL     -0.025258
    161 C54         3.9080    1.8730    3.1610 c         1 MOL      0.346088
    162 O24         3.6270    2.5040    4.2520 o         1 MOL     -0.538936
    163 C55         1.9550    1.3720    1.6040 c3        1 MOL     -0.043410
    164 C56         1.2220    1.8290    0.3250 c3        1 MOL     -0.062813
    165 C57         0.0500    0.9120   -0.0530 c         1 MOL      0.450015
    166 O25        -1.0940    1.4010   -0.1500 o         1 MOL     -0.543067
    167 O26         0.1810   -0.2390   -0.4260 o         1 MOL     -0.543067
    168 H71         3.9100    0.8140    0.2010 hn        1 MOL     -0.391633
    169 H72         3.1850    3.2240    1.6540 h1        1 MOL      0.097490
    170 H73         1.4270    1.7910    2.4650 hc        1 MOL      0.129853
    171 H74         2.0490    0.2920    1.6890 hc        1 MOL      0.129853
    172 H75         1.8970    1.8850   -0.5290 hc        1 MOL      0.047393
    173 H76         0.8070    2.8010    0.5470 hc        1 MOL      0.047393
    174 N15         4.7310    0.8190    3.1960 n         1 MOL      0.004551
    175 C58         5.4550    0.2310    4.3420 c3        1 MOL     -0.136005
    176 H77         4.7360   -0.1660    5.0590 h1        1 MOL      0.062559
    177 H78         6.1000   -0.5740    3.9910 h1        1 MOL      0.062559
    178 H79         6.0610    0.9990    4.8230 h1        1 MOL      0.062559
    179 H80         4.6790    0.2310    2.3740 hn        1 MOL      0.040118
    180 Ca1        -2.2180   -0.6290   -1.2360 Ca        1 MOL      1.679344
    181 O27        -0.4910   -0.9290   -3.4040 oh        1 MOL     -0.769124
    182 H81        -0.1410   -0.2690   -4.0020 ho        1 MOL      0.384707
    183 H82        -0.2510   -1.7690   -3.8040 ho        1 MOL      0.384707
@<TRIPOS>BOND
     1    1    2 1   
     2    1    4 1   
     3    1    5 1   
     4    1    6 1   
     5    2    3 2   
     6    2    7 1   
     7    7    8 1   
     8    7   15 1   
     9    8    9 1   
    10    8   11 1   
    11    8   16 1   
    12    9   10 2   
    13    9   19 1   
    14   11   12 1   
    15   11   17 1   
    16   11   18 1   
    17   12   13 1   
    18   12   14 1   
    19   19   20 1   
    20   19   27 1   
    21   20   21 1   
    22   20   23 1   
    23   20   28 1   
    24   21   22 2   
    25   21   38 1   
    26   23   24 1   
    27   23   25 1   
    28   23   29 1   
    29   24   26 1   
    30   24   30 1   
    31   24   31 1   
    32   25   32 1   
    33   25   33 1   
    34   25   34 1   
    35   26   35 1   
    36   26   36 1   
    37   26   37 1   
    38   38   39 1   
    39   38   46 1   
    40   39   40 1   
    41   39   42 1   
    42   39   47 1   
    43   40   41 2   
    44   40   50 1   
    45   42   43 1   
    46   42   48 1   
    47   42   49 1   
    48   43   44 1   
    49   43   45 1   
    50   50   51 1   
    51   50   54 1   
    52   51   52 1   
    53   51   55 1   
    54   51   56 1   
    55   52   53 2   
    56   52   57 1   
    57   57   58 1   
    58   57   65 1   
    59   58   59 1   
    60   58   61 1   
    61   58   66 1   
    62   59   60 2   
    63   59   69 1   
    64   61   62 1   
    65   61   67 1   
    66   61   68 1   
    67   62   63 1   
    68   62   64 1   
    69   69   70 1   
    70   69   73 1   
    71   70   71 1   
    72   70   74 1   
    73   70   75 1   
    74   71   72 2   
    75   71   76 1   
    76   76   77 1   
    77   76   85 1   
    78   77   78 1   
    79   77   80 1   
    80   77   86 1   
    81   78   79 2   
    82   78   93 1   
    83   80   81 1   
    84   80   87 1   
    85   80   88 1   
    86   81   82 1   
    87   81   89 1   
    88   81   90 1   
    89   82   83 1   
    90   82   84 2   
    91   83   91 1   
    92   83   92 1   
    93   93   94 1   
    94   93  100 1   
    95   94   95 1   
    96   94   97 1   
    97   94  101 1   
    98   95   96 2   
    99   95  109 1   
   100   97   98 1   
   101   97   99 1   
   102   97  102 1   
   103   98  103 1   
   104   98  104 1   
   105   98  105 1   
   106   99  106 1   
   107   99  107 1   
   108   99  108 1   
   109  109  110 1   
   110  109  117 1   
   111  110  111 1   
   112  110  113 1   
   113  110  118 1   
   114  111  112 2   
   115  111  123 1   
   116  113  114 1   
   117  113  119 1   
   118  113  120 1   
   119  114  115 1   
   120  114  116 2   
   121  115  121 1   
   122  115  122 1   
   123  123  124 1   
   124  123  135 1   
   125  124  125 1   
   126  124  127 1   
   127  124  136 1   
   128  125  126 2   
   129  125  144 1   
   130  127  128 1   
   131  127  137 1   
   132  127  138 1   
   133  128  129 ar  
   134  128  130 ar  
   135  129  131 ar  
   136  129  139 1   
   137  130  132 ar  
   138  130  140 1   
   139  131  133 ar  
   140  131  141 1   
   141  132  133 ar  
   142  132  142 1   
   143  133  134 1   
   144  134  143 1   
   145  144  145 1   
   146  144  153 1   
   147  145  146 1   
   148  145  148 1   
   149  145  154 1   
   150  146  147 2   
   151  146  159 1   
   152  148  149 1   
   153  148  155 1   
   154  148  156 1   
   155  149  150 1   
   156  149  157 1   
   157  149  158 1   
   158  150  151 1   
   159  150  152 1   
   160  159  160 1   
   161  159  168 1   
   162  160  161 1   
   163  160  163 1   
   164  160  169 1   
   165  161  162 2   
   166  161  174 1   
   167  163  164 1   
   168  163  170 1   
   169  163  171 1   
   170  164  165 1   
   171  164  172 1   
   172  164  173 1   
   173  165  166 1   
   174  165  167 1   
   175  174  175 1   
   176  174  179 1   
   177  175  176 1   
   178  175  177 1   
   179  175  178 1   
   180  181  182 1   
   181  181  183 1   
@<TRIPOS>SUBSTRUCTURE
     1 MOL         1 TEMP              0 ****  ****    0 ROOT
