@<TRIPOS>MOLECULE
MOL
  183   181     1     0     0
SMALL
resp


@<TRIPOS>ATOM
      1 C1          0.4630    2.0820   -6.0350 c3        1 MOL     -0.396634
      2 C2          1.0510    2.1240   -4.6240 c         1 MOL      0.802909
      3 O1          0.5620    2.8220   -3.7170 o         1 MOL     -0.650812
      4 H1          1.1880    2.4840   -6.7420 hc        1 MOL      0.094941
      5 H2          0.2300    1.0510   -6.3020 hc        1 MOL      0.094941
      6 H3         -0.4470    2.6810   -6.0680 hc        1 MOL      0.094941
      7 N1          2.1470    1.3690   -4.3290 n         1 MOL     -0.731486
      8 C3          2.8250    1.3860   -3.0150 c3        1 MOL      0.492639
      9 C4          3.2750    2.8140   -2.5270 c         1 MOL      0.306501
     10 O2          4.2740    3.3220   -3.0650 o         1 MOL     -0.529413
     11 C5          4.0340    0.3670   -3.0820 c3        1 MOL     -0.528298
     12 C6          4.7520    0.1580   -1.7530 c         1 MOL      0.884095
     13 O3          5.8460   -0.4450   -1.6570 o         1 MOL     -0.686411
     14 O4          4.1070    0.4860   -0.7160 o         1 MOL     -0.686411
     15 H4          2.5410    0.8090   -5.0690 hn        1 MOL      0.313668
     16 H5          2.1620    0.9220   -2.2920 h1        1 MOL     -0.035450
     17 H6          4.7820    0.8300   -3.7350 hc        1 MOL      0.100711
     18 H7          3.6160   -0.5980   -3.3720 hc        1 MOL      0.100711
     19 N2          2.6210    3.3220   -1.4460 n         1 MOL     -0.118089
     20 C7          2.9630    4.6770   -1.0710 c3        1 MOL     -0.015621
     21 C8          4.2230    4.7540   -0.1240 c         1 MOL      0.445892
     22 O5          5.1360    5.5470   -0.4110 o         1 MOL     -0.603986
     23 C9          1.7470    5.3620   -0.4140 c3        1 MOL      0.253897
     24 C10         0.3990    5.1010   -1.1390 c3        1 MOL      0.252605
     25 C11         2.0720    6.8260   -0.3430 c3        1 MOL     -0.496401
     26 C12        -0.7830    5.9270   -0.7170 c3        1 MOL     -0.432127
     27 H8          1.7930    2.8980   -1.0630 hn        1 MOL      0.282944
     28 H9          3.0960    5.2060   -2.0070 h1        1 MOL      0.025701
     29 H10         1.7190    4.9360    0.5890 hc        1 MOL     -0.049315
     30 H11         0.1760    4.0420   -1.0300 hc        1 MOL     -0.016769
     31 H12         0.5660    5.2930   -2.2020 hc        1 MOL     -0.016769
     32 H13         2.8350    6.8220    0.4370 hc        1 MOL      0.101021
     33 H14         2.5300    7.2700   -1.2290 hc        1 MOL      0.101021
     34 H15         1.2510    7.3660    0.1150 hc        1 MOL      0.101021
     35 H16        -0.9050    5.7350    0.3500 hc        1 MOL      0.088573
     36 H17        -0.5710    6.9540   -1.0260 hc        1 MOL      0.088573
     37 H18        -1.7330    5.6610   -1.1900 hc        1 MOL      0.088573
     38 N3          4.2980    3.8980    0.8590 n         1 MOL     -0.233320
     39 C13         5.1880    3.9160    2.1290 c3        1 MOL     -0.011649
     40 C14         6.4350    2.9770    1.9410 c         1 MOL      0.368171
     41 O6          7.1750    2.8300    2.9230 o         1 MOL     -0.510493
     42 C15         4.4060    3.4490    3.4160 c3        1 MOL     -0.163713
     43 C16         3.4700    2.2510    3.2990 c         1 MOL      0.760782
     44 O7          2.7680    2.0490    4.2760 o         1 MOL     -0.678404
     45 O8          3.3010    1.6160    2.2260 o         1 MOL     -0.678404
     46 H19         3.6400    3.1270    0.8440 hn        1 MOL      0.124169
     47 H20         5.5310    4.9390    2.3010 h1        1 MOL      0.090654
     48 H21         3.8880    4.3550    3.7230 hc        1 MOL      0.042828
     49 H22         5.1410    3.3270    4.2120 hc        1 MOL      0.042828
     50 N4          6.5880    2.3820    0.7720 n         1 MOL     -0.173055
     51 C17         7.8090    1.7120    0.3580 c3        1 MOL     -0.340343
     52 C18         7.9460    0.3350    1.0170 c         1 MOL      0.604655
     53 O9          9.0170    0.0010    1.4660 o         1 MOL     -0.622159
     54 H23         5.8680    2.4340    0.0730 hn        1 MOL      0.265447
     55 H24         8.6270    2.3980    0.5760 h1        1 MOL      0.143096
     56 H25         7.7120    1.5700   -0.7160 h1        1 MOL      0.143096
     57 N5          6.9560   -0.5550    1.0550 n         1 MOL     -0.045013
     58 C19         7.1620   -1.9440    1.5420 c3        1 MOL     -0.003888
     59 C20         7.1630   -3.0250    0.4890 c         1 MOL      0.332537
     60 O10         7.4840   -4.1950    0.7530 o         1 MOL     -0.580969
     61 C21         6.1730   -2.2740    2.6460 c3        1 MOL     -0.031097
     62 C22         4.7480   -1.8470    2.2410 c         1 MOL      0.572683
     63 O11         3.9720   -1.3000    3.0770 o         1 MOL     -0.680504
     64 O12         4.3650   -2.0230    1.0870 o         1 MOL     -0.680504
     65 H26         6.1310   -0.3290    0.5230 hn        1 MOL     -0.097026
     66 H27         8.1830   -1.9020    1.9310 h1        1 MOL      0.092933
     67 H28         6.5830   -1.6490    3.4380 hc        1 MOL      0.017738
     68 H29         6.3050   -3.2700    3.0730 hc        1 MOL      0.017738
     69 N6          6.6480   -2.8070   -0.7100 n         1 MOL     -0.104128
     70 C23         6.5110   -3.7490   -1.8880 c3        1 MOL     -0.075685
     71 C24         5.1760   -4.4940   -2.0620 c         1 MOL      0.634306
     72 O13         5.1500   -5.3840   -2.8670 o         1 MOL     -0.615759
     73 H30         6.3020   -1.8770   -0.8650 hn        1 MOL      0.153575
     74 H31         7.2630   -4.5330   -1.9610 h1        1 MOL      0.044159
     75 H32         6.6020   -3.1550   -2.7940 h1        1 MOL      0.044159
     76 N7          4.1620   -4.1670   -1.2670 n         1 MOL     -0.315717
     77 C25         2.7580   -4.6060   -1.3720 c3        1 MOL     -0.055383
     78 C26         1.7710   -3.4350   -1.3170 c         1 MOL      0.749096
     79 O14         2.0460   -2.3150   -0.9140 o         1 MOL     -0.607010
     80 C27         2.4420   -5.6530   -0.3100 c3        1 MOL      0.037764
     81 C28         2.5050   -5.1930    1.1900 c3        1 MOL     -0.434182
     82 C29         1.3200   -4.2940    1.7270 c         1 MOL      0.596564
     83 N8          0.1840   -4.9010    1.9270 n         1 MOL     -0.700100
     84 O15         1.5080   -3.1340    2.0130 o         1 MOL     -0.514621
     85 H33         4.2940   -3.2990   -0.7600 hn        1 MOL      0.207921
     86 H34         2.6250   -5.0640   -2.3440 h1        1 MOL      0.049412
     87 H35         3.1830   -6.4360   -0.4560 hc        1 MOL      0.007522
     88 H36         1.4790   -6.1090   -0.5480 hc        1 MOL      0.007522
     89 H37         3.3750   -4.5550    1.3100 hc        1 MOL      0.153885
     90 H38         2.7160   -6.0920    1.7750 hc        1 MOL      0.153885
     91 H39         0.2340   -5.9090    1.8350 hn        1 MOL      0.326113
     92 H40        -0.6130   -4.3840    2.2410 hn        1 MOL      0.326113
     93 N9          0.5910   -3.6740   -1.7730 n         1 MOL     -0.633300
     94 C30        -0.4660   -2.6020   -2.0650 c3        1 MOL      0.025904
     95 C31        -1.6990   -2.9730   -1.2830 c         1 MOL      0.458566
     96 O16        -2.3860   -3.9060   -1.6370 o         1 MOL     -0.585978
     97 C32        -0.7680   -2.3800   -3.5580 c3        1 MOL      0.268189
     98 C33        -1.7470   -1.2460   -3.7660 c3        1 MOL     -0.303604
     99 C34         0.3980   -2.3340   -4.5140 c3        1 MOL     -0.303604
    100 H41         0.2930   -4.6280   -1.8990 hn        1 MOL      0.318947
    101 H42        -0.1170   -1.6320   -1.6920 h1        1 MOL      0.191485
    102 H43        -1.4080   -3.2190   -3.8520 hc        1 MOL     -0.049059
    103 H44        -1.2670   -0.3070   -3.4990 hc        1 MOL      0.065634
    104 H45        -2.0110   -1.1730   -4.8280 hc        1 MOL      0.065634
    105 H46        -2.6230   -1.3020   -3.1100 hc        1 MOL      0.065634
    106 H47         1.2190   -3.0460   -4.3840 hc        1 MOL      0.065634
    107 H48         0.0460   -2.4460   -5.5500 hc        1 MOL      0.065634
    108 H49         0.9000   -1.3900   -4.3140 hc        1 MOL      0.065634
    109 N10        -2.0160   -2.3310   -0.2070 n         1 MOL     -0.105115
    110 C35        -3.3150   -2.4810    0.4940 c3        1 MOL     -0.019834
    111 C36        -4.5500   -1.8710   -0.2100 c         1 MOL      0.309494
    112 O17        -4.3870   -0.9290   -1.0020 o         1 MOL     -0.211113
    113 C37        -3.1730   -1.7990    1.8760 c3        1 MOL     -0.281249
    114 C38        -2.3210   -2.5980    2.8970 c         1 MOL      0.645082
    115 N11        -1.4850   -1.9140    3.6370 n         1 MOL     -0.711414
    116 O18        -2.3970   -3.8370    3.0800 o         1 MOL     -0.572798
    117 H50        -1.3850   -1.5760    0.0590 hn        1 MOL      0.170467
    118 H51        -3.4290   -3.5530    0.6560 h1        1 MOL      0.072810
    119 H52        -4.1090   -1.6120    2.3900 hc        1 MOL      0.043284
    120 H53        -2.7490   -0.8140    1.7160 hc        1 MOL      0.043284
    121 H54        -1.5400   -0.9040    3.5410 hn        1 MOL      0.381954
    122 H55        -0.7500   -2.4560    4.0670 hn        1 MOL      0.381954
    123 N12        -5.7640   -2.3280    0.2380 n         1 MOL     -0.390092
    124 C39        -6.9630   -1.6110   -0.1570 c3        1 MOL      0.046792
    125 C40        -6.9080   -0.0780    0.1200 c         1 MOL      0.470017
    126 O19        -7.2480    0.8480   -0.6830 o         1 MOL     -0.457217
    127 C41        -8.2620   -2.1900    0.4430 c3        1 MOL     -0.333137
    128 C42        -9.5630   -1.4430    0.1470 ca        1 MOL      0.140141
    129 C43       -10.3440   -1.6410   -1.0470 ca        1 MOL     -0.227010
    130 C44       -10.1450   -0.7060    1.1560 ca        1 MOL     -0.227010
    131 C45       -11.5480   -1.0280   -1.3000 ca        1 MOL     -0.165824
    132 C46       -11.4750   -0.1360    0.9600 ca        1 MOL     -0.165824
    133 C47       -12.0990   -0.3020   -0.2660 ca        1 MOL      0.277330
    134 O20       -13.3330    0.2850   -0.4590 oh        1 MOL     -0.519611
    135 H56        -5.8750   -3.1240    0.8590 hn        1 MOL      0.303199
    136 H57        -6.9540   -1.8530   -1.2140 h1        1 MOL      0.111668
    137 H58        -8.1170   -2.2450    1.5220 hc        1 MOL      0.112725
    138 H59        -8.3500   -3.1990    0.0390 hc        1 MOL      0.112725
    139 H60       -10.0170   -2.2820   -1.8550 ha        1 MOL      0.146572
    140 H61        -9.5970   -0.6610    2.0950 ha        1 MOL      0.146572
    141 H62       -12.0670   -1.1900   -2.2370 ha        1 MOL      0.128983
    142 H63       -11.9790    0.3520    1.7840 ha        1 MOL      0.128983
    143 H64       -13.7170    0.7370    0.2930 ho        1 MOL      0.366166
    144 N13        -6.2540    0.2970    1.2820 n         1 MOL     -0.243979
    145 C48        -5.9390    1.6610    1.6610 c3        1 MOL     -0.223114
    146 C49        -5.2040    2.4390    0.5720 c         1 MOL      0.324006
    147 O21        -5.3160    3.6790    0.5920 o         1 MOL     -0.536105
    148 C50        -5.0720    1.6920    2.9490 c3        1 MOL      0.235392
    149 C51        -5.8590    1.3900    4.2370 c3        1 MOL     -0.169930
    150 C52        -4.8670    1.4020    5.4470 c         1 MOL      0.553859
    151 O22        -3.8160    0.7540    5.4070 o         1 MOL     -0.670986
    152 O23        -4.9630    2.4270    6.1910 o         1 MOL     -0.670986
    153 H65        -6.1140   -0.4450    1.9470 hn        1 MOL      0.228230
    154 H66        -6.9120    2.1160    1.8400 h1        1 MOL      0.123289
    155 H67        -4.6510    2.6910    2.9890 hc        1 MOL      0.033635
    156 H68        -4.4320    0.8140    2.8910 hc        1 MOL      0.033635
    157 H69        -6.4060    0.4540    4.1200 hc        1 MOL     -0.017583
    158 H70        -6.6180    2.1590    4.3920 hc        1 MOL     -0.017583
    159 N14        -4.4680    1.7920   -0.3020 n         1 MOL      0.003243
    160 C53        -3.5650    2.3040   -1.3900 c3        1 MOL     -0.157109
    161 C54        -4.1500    2.1430   -2.7630 c         1 MOL      0.510064
    162 O24        -3.7550    2.9140   -3.6400 o         1 MOL     -0.575256
    163 C55        -2.1550    1.6340   -1.3900 c3        1 MOL      0.295975
    164 C56        -1.4510    1.5940   -0.0290 c3        1 MOL      0.043593
    165 C57        -0.0520    0.8670    0.0190 c         1 MOL      0.733208
    166 O25         1.0090    1.5380   -0.1190 o         1 MOL     -0.830542
    167 O26         0.1050   -0.3370    0.2720 o         1 MOL     -0.830542
    168 H71        -4.5380    0.7860   -0.1990 hn        1 MOL      0.114402
    169 H72        -3.5020    3.3860   -1.2110 h1        1 MOL      0.108363
    170 H73        -1.5020    2.2310   -2.0190 hc        1 MOL     -0.079111
    171 H74        -2.2730    0.6670   -1.8880 hc        1 MOL     -0.079111
    172 H75        -2.1310    1.0750    0.6460 hc        1 MOL     -0.053334
    173 H76        -1.4090    2.5410    0.5080 hc        1 MOL     -0.053334
    174 N15        -5.0830    1.2110   -2.9000 n         1 MOL     -0.013997
    175 C58        -5.9590    0.9580   -4.0120 c3        1 MOL     -0.383669
    176 H77        -6.3700   -0.0480   -3.9290 h1        1 MOL      0.125128
    177 H78        -6.7720    1.6840   -4.0060 h1        1 MOL      0.125128
    178 H79        -5.4000    1.0460   -4.9440 h1        1 MOL      0.125128
    179 H80        -5.2570    0.6700   -2.0640 hn        1 MOL     -0.067282
    180 Ca1         2.4970   -0.4150    1.0250 Ca        1 MOL      1.800411
    181 O27         1.0270    0.1410    3.3360 oh        1 MOL     -0.820888
    182 H81         0.1150    0.1060    3.6030 ho        1 MOL      0.381669
    183 H82         1.3520    0.9660    3.7170 ho        1 MOL      0.381669
@<TRIPOS>BOND
     1    1    2 1   
     2    1    4 1   
     3    1    5 1   
     4    1    6 1   
     5    2    3 2   
     6    2    7 1   
     7    7    8 1   
     8    7   15 1   
     9    8    9 1   
    10    8   11 1   
    11    8   16 1   
    12    9   10 2   
    13    9   19 1   
    14   11   12 1   
    15   11   17 1   
    16   11   18 1   
    17   12   13 1   
    18   12   14 1   
    19   19   20 1   
    20   19   27 1   
    21   20   21 1   
    22   20   23 1   
    23   20   28 1   
    24   21   22 2   
    25   21   38 1   
    26   23   24 1   
    27   23   25 1   
    28   23   29 1   
    29   24   26 1   
    30   24   30 1   
    31   24   31 1   
    32   25   32 1   
    33   25   33 1   
    34   25   34 1   
    35   26   35 1   
    36   26   36 1   
    37   26   37 1   
    38   38   39 1   
    39   38   46 1   
    40   39   40 1   
    41   39   42 1   
    42   39   47 1   
    43   40   41 2   
    44   40   50 1   
    45   42   43 1   
    46   42   48 1   
    47   42   49 1   
    48   43   44 1   
    49   43   45 1   
    50   50   51 1   
    51   50   54 1   
    52   51   52 1   
    53   51   55 1   
    54   51   56 1   
    55   52   53 2   
    56   52   57 1   
    57   57   58 1   
    58   57   65 1   
    59   58   59 1   
    60   58   61 1   
    61   58   66 1   
    62   59   60 2   
    63   59   69 1   
    64   61   62 1   
    65   61   67 1   
    66   61   68 1   
    67   62   63 1   
    68   62   64 1   
    69   69   70 1   
    70   69   73 1   
    71   70   71 1   
    72   70   74 1   
    73   70   75 1   
    74   71   72 2   
    75   71   76 1   
    76   76   77 1   
    77   76   85 1   
    78   77   78 1   
    79   77   80 1   
    80   77   86 1   
    81   78   79 2   
    82   78   93 1   
    83   80   81 1   
    84   80   87 1   
    85   80   88 1   
    86   81   82 1   
    87   81   89 1   
    88   81   90 1   
    89   82   83 1   
    90   82   84 2   
    91   83   91 1   
    92   83   92 1   
    93   93   94 1   
    94   93  100 1   
    95   94   95 1   
    96   94   97 1   
    97   94  101 1   
    98   95   96 2   
    99   95  109 1   
   100   97   98 1   
   101   97   99 1   
   102   97  102 1   
   103   98  103 1   
   104   98  104 1   
   105   98  105 1   
   106   99  106 1   
   107   99  107 1   
   108   99  108 1   
   109  109  110 1   
   110  109  117 1   
   111  110  111 1   
   112  110  113 1   
   113  110  118 1   
   114  111  112 2   
   115  111  123 1   
   116  113  114 1   
   117  113  119 1   
   118  113  120 1   
   119  114  115 1   
   120  114  116 2   
   121  115  121 1   
   122  115  122 1   
   123  123  124 1   
   124  123  135 1   
   125  124  125 1   
   126  124  127 1   
   127  124  136 1   
   128  125  126 2   
   129  125  144 1   
   130  127  128 1   
   131  127  137 1   
   132  127  138 1   
   133  128  129 ar  
   134  128  130 ar  
   135  129  131 ar  
   136  129  139 1   
   137  130  132 ar  
   138  130  140 1   
   139  131  133 ar  
   140  131  141 1   
   141  132  133 ar  
   142  132  142 1   
   143  133  134 1   
   144  134  143 1   
   145  144  145 1   
   146  144  153 1   
   147  145  146 1   
   148  145  148 1   
   149  145  154 1   
   150  146  147 2   
   151  146  159 1   
   152  148  149 1   
   153  148  155 1   
   154  148  156 1   
   155  149  150 1   
   156  149  157 1   
   157  149  158 1   
   158  150  151 1   
   159  150  152 1   
   160  159  160 1   
   161  159  168 1   
   162  160  161 1   
   163  160  163 1   
   164  160  169 1   
   165  161  162 2   
   166  161  174 1   
   167  163  164 1   
   168  163  170 1   
   169  163  171 1   
   170  164  165 1   
   171  164  172 1   
   172  164  173 1   
   173  165  166 1   
   174  165  167 1   
   175  174  175 1   
   176  174  179 1   
   177  175  176 1   
   178  175  177 1   
   179  175  178 1   
   180  181  182 1   
   181  181  183 1   
@<TRIPOS>SUBSTRUCTURE
     1 MOL         1 TEMP              0 ****  ****    0 ROOT
