@<TRIPOS>MOLECULE
MOL
  179   176     1     0     0
SMALL
resp


@<TRIPOS>ATOM
      1 C1          1.0540    4.9410    5.1820 c3        1 MOL     -0.433690
      2 C2          0.6790    4.4420    3.7720 c         1 MOL      0.629765
      3 O1          1.3230    4.6850    2.8080 o         1 MOL     -0.568824
      4 H1          0.7350    5.9770    5.2960 hc        1 MOL      0.117083
      5 H2          0.5570    4.3240    5.9300 hc        1 MOL      0.117083
      6 H3          2.1330    4.8770    5.3160 hc        1 MOL      0.117083
      7 N1         -0.3500    3.6420    3.6700 n         1 MOL     -0.356705
      8 C3         -0.8240    3.0480    2.4370 c3        1 MOL     -0.033635
      9 C4         -1.2620    4.1770    1.4480 c         1 MOL      0.419979
     10 O2         -2.0390    5.0810    1.8610 o         1 MOL     -0.553953
     11 C5         -2.0260    2.1360    2.7770 c3        1 MOL     -0.259226
     12 C6         -2.6980    1.3920    1.6210 c         1 MOL      0.857152
     13 O3         -3.6850    0.6890    1.9690 o         1 MOL     -0.744789
     14 O4         -2.3560    1.5280    0.4350 o         1 MOL     -0.744789
     15 H4         -0.9730    3.5140    4.4570 hn        1 MOL      0.277599
     16 H5         -0.0050    2.5340    1.9390 h1        1 MOL      0.071516
     17 H6         -2.8310    2.6600    3.2920 hc        1 MOL      0.082987
     18 H7         -1.7040    1.3180    3.4260 hc        1 MOL      0.082987
     19 N2         -0.7300    4.2760    0.2240 n         1 MOL      0.007681
     20 C7         -0.8630    5.4240   -0.6770 c3        1 MOL      0.047161
     21 C8         -2.0320    5.6250   -1.6010 c         1 MOL      0.309564
     22 O5         -2.5590    6.6900   -1.6710 o         1 MOL     -0.497495
     23 C9          0.4120    5.5970   -1.5270 c3        1 MOL     -0.112002
     24 C10         1.7090    5.8130   -0.7480 c3        1 MOL      0.053860
     25 C11         1.7410    7.0910    0.1020 c3        1 MOL     -0.068400
     26 C12         3.1300    7.4690    0.4850 c3        1 MOL      0.056798
     27 N3          3.6000    6.6020    1.6420 n4        1 MOL     -0.480147
     28 H8         -0.0170    3.5790    0.0410 hn        1 MOL      0.156524
     29 H9         -0.9150    6.2910   -0.0200 h1        1 MOL      0.027514
     30 H10         0.2680    6.4180   -2.2240 hc        1 MOL      0.061739
     31 H11         0.4550    4.6850   -2.1260 hc        1 MOL      0.061739
     32 H12         2.4270    5.8500   -1.5720 hc        1 MOL      0.006719
     33 H13         1.7870    5.0050   -0.0200 hc        1 MOL      0.006719
     34 H14         1.0770    7.0740    0.9620 hc        1 MOL      0.050947
     35 H15         1.4140    7.9000   -0.5450 hc        1 MOL      0.050947
     36 H16         3.2660    8.5090    0.7930 hx        1 MOL      0.080678
     37 H17         3.8240    7.4790   -0.3500 hx        1 MOL      0.080678
     38 H18         4.3760    7.1480    2.0080 hn        1 MOL      0.347616
     39 H19         2.9430    6.6320    2.4140 hn        1 MOL      0.347616
     40 H20         3.9050    5.6770    1.4010 hn        1 MOL      0.347616
     41 N4         -2.4370    4.4820   -2.1670 n         1 MOL     -0.070560
     42 C13        -3.6540    4.2360   -2.9370 c3        1 MOL     -0.064772
     43 C14        -4.8970    3.8610   -2.0970 c         1 MOL      0.513567
     44 O6         -5.9530    4.0760   -2.7180 o         1 MOL     -0.518199
     45 C15        -3.3330    3.1230   -3.8510 c3        1 MOL     -0.179782
     46 C16        -2.6810    1.9490   -3.1110 c         1 MOL      0.683849
     47 O7         -3.3340    0.9600   -2.7380 o         1 MOL     -0.650193
     48 O8         -1.4560    2.0170   -2.8370 o         1 MOL     -0.650193
     49 H21        -1.8690    3.6580   -2.0360 hn        1 MOL      0.016366
     50 H22        -3.8620    5.1650   -3.4740 h1        1 MOL      0.104449
     51 H23        -2.5780    3.4630   -4.5490 hc        1 MOL      0.055453
     52 H24        -4.1720    2.7330   -4.4420 hc        1 MOL      0.055453
     53 N5         -4.6850    3.5060   -0.7960 n         1 MOL     -0.291968
     54 C17        -5.7230    3.2870    0.1880 c3        1 MOL     -0.102379
     55 C18        -6.5280    2.0490    0.1210 c         1 MOL      0.383139
     56 O9         -7.7810    1.9690    0.3170 o         1 MOL     -0.549746
     57 H25        -3.7440    3.3860   -0.4490 hn        1 MOL      0.223323
     58 H26        -6.4430    4.0990    0.0870 h1        1 MOL      0.105872
     59 H27        -5.3210    3.4510    1.1940 h1        1 MOL      0.105872
     60 N6         -5.8770    0.9370   -0.2940 n         1 MOL     -0.033035
     61 C19        -6.4790   -0.3450   -0.7200 c3        1 MOL     -0.088641
     62 C20        -6.3410   -1.4880    0.2970 c         1 MOL      0.230776
     63 O10        -6.8860   -2.5610   -0.0030 o         1 MOL     -0.423657
     64 C21        -5.8470   -0.7370   -2.0440 c3        1 MOL     -0.063097
     65 C22        -4.5670   -1.5380   -1.9430 c         1 MOL      0.661869
     66 N7         -4.3250   -2.3610   -2.8780 n         1 MOL     -0.659045
     67 O11        -3.7740   -1.3720   -0.9930 o         1 MOL     -0.678011
     68 H28        -4.8800    0.9350   -0.4510 hn        1 MOL      0.111074
     69 H29        -7.5490   -0.1480   -0.7980 h1        1 MOL      0.146682
     70 H30        -5.5660    0.1370   -2.6390 hc        1 MOL      0.030924
     71 H31        -6.5770   -1.3990   -2.4900 hc        1 MOL      0.030924
     72 H32        -5.0580   -2.4040   -3.5750 hn        1 MOL      0.327617
     73 H33        -3.5700   -2.9990   -2.7120 hn        1 MOL      0.327617
     74 N8         -5.7470   -1.2690    1.5140 n         1 MOL     -0.049602
     75 C23        -5.7950   -2.2740    2.6540 c3        1 MOL     -0.336186
     76 C24        -4.5780   -3.2350    2.5860 c         1 MOL      0.732578
     77 O12        -4.5330   -4.2150    3.3230 o         1 MOL     -0.571361
     78 H34        -5.3770   -0.3600    1.7870 hn        1 MOL      0.196761
     79 H35        -6.7160   -2.8630    2.6980 h1        1 MOL      0.138035
     80 H36        -5.8250   -1.6930    3.5790 h1        1 MOL      0.138035
     81 N9         -3.5190   -2.8300    1.8380 n         1 MOL     -0.607113
     82 C25        -2.2500   -3.5510    1.6210 c3        1 MOL      0.210546
     83 C26        -1.0060   -2.6010    1.3830 c         1 MOL      0.561539
     84 O13        -1.2280   -1.4960    0.8450 o         1 MOL     -0.630621
     85 C27        -2.3520   -4.3900    0.3220 c3        1 MOL     -0.002225
     86 C28        -3.5160   -5.3290    0.2600 ca        1 MOL     -0.114442
     87 C29        -4.6380   -4.9240   -0.4970 ca        1 MOL     -0.003184
     88 C30        -3.4130   -6.6290    0.7760 ca        1 MOL     -0.003184
     89 C31        -5.6700   -5.8870   -0.6210 ca        1 MOL     -0.392711
     90 C32        -4.4290   -7.5640    0.6570 ca        1 MOL     -0.392711
     91 C33        -5.6090   -7.1500    0.0270 ca        1 MOL      0.469629
     92 O14        -6.7590   -7.8830   -0.0120 oh        1 MOL     -0.514954
     93 H37        -3.6050   -1.9070    1.4370 hn        1 MOL      0.355518
     94 H38        -2.0310   -4.2170    2.4560 h1        1 MOL      0.026111
     95 H39        -1.4360   -4.9600    0.1420 hc        1 MOL     -0.003849
     96 H40        -2.4030   -3.6450   -0.4680 hc        1 MOL     -0.003849
     97 H41        -4.7080   -3.9430   -0.9470 ha        1 MOL      0.094799
     98 H42        -2.5230   -6.9450    1.2980 ha        1 MOL      0.094799
     99 H43        -6.5890   -5.6070   -1.1200 ha        1 MOL      0.167137
    100 H44        -4.3800   -8.5530    1.0830 ha        1 MOL      0.167137
    101 H45        -6.7040   -8.6940    0.5130 ho        1 MOL      0.372772
    102 N10         0.1460   -3.0260    1.8420 n         1 MOL     -0.534201
    103 C34         1.4500   -2.3700    1.5840 c3        1 MOL      0.007467
    104 C35         2.4200   -3.3980    0.9690 c         1 MOL      0.497567
    105 O15         2.7140   -4.4530    1.6220 o         1 MOL     -0.519039
    106 C36         1.9690   -1.7270    2.8550 c3        1 MOL     -0.007616
    107 C37         0.9660   -0.5790    3.3240 c3        1 MOL      0.141777
    108 C38         3.3710   -1.1790    2.8100 c3        1 MOL     -0.127244
    109 C39         1.1770    0.0910    4.7170 c3        1 MOL     -0.177880
    110 H46         0.2200   -3.7420    2.5530 hn        1 MOL      0.326408
    111 H47         1.3900   -1.5170    0.9080 h1        1 MOL      0.092086
    112 H48         1.9100   -2.4510    3.6670 hc        1 MOL      0.038326
    113 H49        -0.0470   -0.9550    3.2820 hc        1 MOL     -0.000911
    114 H50         1.0610    0.1920    2.5600 hc        1 MOL     -0.000911
    115 H51         3.6310   -0.6830    1.8830 hc        1 MOL      0.035796
    116 H52         3.6290   -0.4740    3.5970 hc        1 MOL      0.035796
    117 H53         4.0030   -2.0610    2.9450 hc        1 MOL      0.035796
    118 H54         2.1810    0.3830    5.0370 hc        1 MOL      0.032800
    119 H55         0.5180    0.9410    4.9080 hc        1 MOL      0.032800
    120 H56         0.9050   -0.7280    5.3770 hc        1 MOL      0.032800
    121 N11         2.9260   -3.2160   -0.2650 n         1 MOL     -0.347689
    122 C40         4.0180   -3.9170   -0.8880 c3        1 MOL     -0.043662
    123 C41         5.3980   -3.5340   -0.2810 c         1 MOL      0.360378
    124 O16         5.4920   -2.4960    0.3780 o         1 MOL     -0.270115
    125 C42         4.1070   -3.6110   -2.4160 c3        1 MOL     -0.133969
    126 O17         4.3950   -2.2380   -2.6360 oh        1 MOL     -0.439264
    127 H57         2.5870   -2.3910   -0.7280 hn        1 MOL      0.320922
    128 H58         3.9480   -4.9890   -0.7300 h1        1 MOL      0.106845
    129 H59         3.1190   -3.8120   -2.8230 h1        1 MOL      0.104756
    130 H60         4.7190   -4.3420   -2.9360 h1        1 MOL      0.104756
    131 H61         4.4130   -2.0950   -3.5780 ho        1 MOL      0.391870
    132 N12         6.4940   -4.2530   -0.6240 n         1 MOL     -0.401049
    133 C43         7.8920   -3.8710   -0.2810 c3        1 MOL      0.090051
    134 C44         8.2610   -2.4760   -0.7360 c         1 MOL      0.499801
    135 O18         9.1190   -1.8390   -0.1350 o         1 MOL     -0.539267
    136 C45         8.7360   -4.9910   -0.9440 c3        1 MOL     -0.248439
    137 H62         6.2900   -5.0290   -1.2300 hn        1 MOL      0.280580
    138 H63         8.0320   -3.8720    0.7960 h1        1 MOL      0.092860
    139 H64         8.7140   -4.9410   -2.0330 hc        1 MOL      0.081651
    140 H65         9.7910   -4.8060   -0.7380 hc        1 MOL      0.081651
    141 H66         8.4130   -5.9980   -0.6700 hc        1 MOL      0.081651
    142 N13         7.7100   -1.9830   -1.8220 n         1 MOL     -0.343828
    143 C46         8.0190   -0.6080   -2.2610 c3        1 MOL      0.173093
    144 C47         7.3320    0.5430   -1.5370 c         1 MOL      0.260947
    145 O19         7.9590    1.5720   -1.2330 o         1 MOL     -0.472924
    146 C48         7.6000   -0.4930   -3.7720 c3        1 MOL     -0.370404
    147 H67         7.0640   -2.5970   -2.3030 hn        1 MOL      0.211831
    148 H68         9.0850   -0.4390   -2.1790 h1        1 MOL      0.101584
    149 H69         6.5370   -0.7100   -3.9160 hc        1 MOL      0.103623
    150 H70         7.6960    0.5590   -4.0410 hc        1 MOL      0.103623
    151 H71         8.1990   -1.1740   -4.3710 hc        1 MOL      0.103623
    152 N14         6.0380    0.3690   -1.1380 n         1 MOL     -0.031920
    153 C49         5.2840    1.2090   -0.2500 c3        1 MOL     -0.148301
    154 C50         5.9440    1.1620    1.1920 c         1 MOL      0.415694
    155 O20         6.0900    2.1890    1.8960 o         1 MOL     -0.546350
    156 C51         3.7510    0.8900   -0.2730 c3        1 MOL      0.125102
    157 C52         3.0440    1.3870   -1.5170 c3        1 MOL     -0.215085
    158 C53         1.5540    0.9570   -1.4810 c         1 MOL      0.811243
    159 O21         1.0750    0.3430   -2.4850 o         1 MOL     -0.776753
    160 O22         0.8560    0.9750   -0.4830 o         1 MOL     -0.776753
    161 H72         5.5040   -0.3790   -1.5510 hn        1 MOL      0.105779
    162 H73         5.4660    2.2280   -0.6060 h1        1 MOL      0.097139
    163 H74         3.2770    1.3510    0.6010 hc        1 MOL      0.003508
    164 H75         3.5270   -0.1740   -0.2920 hc        1 MOL      0.003508
    165 H76         3.4090    0.8800   -2.4190 hc        1 MOL      0.018560
    166 H77         3.2130    2.4590   -1.5890 hc        1 MOL      0.018560
    167 N15         6.4870   -0.0300    1.5920 n         1 MOL      0.025300
    168 C54         7.1410   -0.1810    2.9070 c3        1 MOL     -0.207788
    169 H78         6.9210   -1.1690    3.3100 h1        1 MOL      0.085894
    170 H79         8.2190   -0.0670    2.7930 h1        1 MOL      0.085894
    171 H80         6.7650    0.5810    3.5900 h1        1 MOL      0.085894
    172 H81         6.1120   -0.8400    1.1220 hn        1 MOL     -0.022337
    173 Ca1        -1.3360   -0.1520   -1.2970 Ca        1 MOL      1.668770
    174 O23        -1.7500   -1.0290   -3.8400 oh        1 MOL     -0.747944
    175 H82        -1.8310   -1.9850   -3.8390 ho        1 MOL      0.367645
    176 H83        -2.5790   -0.7250   -4.2050 ho        1 MOL      0.367645
    177 O24         0.0490   -2.2280   -1.8040 oh        1 MOL     -0.747944
    178 H84         0.5950   -1.9540   -2.5430 ho        1 MOL      0.367645
    179 H85         0.0410   -3.1830   -1.8540 ho        1 MOL      0.367645
@<TRIPOS>BOND
     1    1    2 1   
     2    1    4 1   
     3    1    5 1   
     4    1    6 1   
     5    2    3 2   
     6    2    7 1   
     7    7    8 1   
     8    7   15 1   
     9    8    9 1   
    10    8   11 1   
    11    8   16 1   
    12    9   10 2   
    13    9   19 1   
    14   11   12 1   
    15   11   17 1   
    16   11   18 1   
    17   12   13 1   
    18   12   14 1   
    19   19   20 1   
    20   19   28 1   
    21   20   21 1   
    22   20   23 1   
    23   20   29 1   
    24   21   22 2   
    25   21   41 1   
    26   23   24 1   
    27   23   30 1   
    28   23   31 1   
    29   24   25 1   
    30   24   32 1   
    31   24   33 1   
    32   25   26 1   
    33   25   34 1   
    34   25   35 1   
    35   26   27 1   
    36   26   36 1   
    37   26   37 1   
    38   27   38 1   
    39   27   39 1   
    40   27   40 1   
    41   41   42 1   
    42   41   49 1   
    43   42   43 1   
    44   42   45 1   
    45   42   50 1   
    46   43   44 2   
    47   43   53 1   
    48   45   46 1   
    49   45   51 1   
    50   45   52 1   
    51   46   47 1   
    52   46   48 1   
    53   53   54 1   
    54   53   57 1   
    55   54   55 1   
    56   54   58 1   
    57   54   59 1   
    58   55   56 2   
    59   55   60 1   
    60   60   61 1   
    61   60   68 1   
    62   61   62 1   
    63   61   64 1   
    64   61   69 1   
    65   62   63 2   
    66   62   74 1   
    67   64   65 1   
    68   64   70 1   
    69   64   71 1   
    70   65   66 1   
    71   65   67 2   
    72   66   72 1   
    73   66   73 1   
    74   74   75 1   
    75   74   78 1   
    76   75   76 1   
    77   75   79 1   
    78   75   80 1   
    79   76   77 2   
    80   76   81 1   
    81   81   82 1   
    82   81   93 1   
    83   82   83 1   
    84   82   85 1   
    85   82   94 1   
    86   83   84 2   
    87   83  102 1   
    88   85   86 1   
    89   85   95 1   
    90   85   96 1   
    91   86   87 ar  
    92   86   88 ar  
    93   87   89 ar  
    94   87   97 1   
    95   88   90 ar  
    96   88   98 1   
    97   89   91 ar  
    98   89   99 1   
    99   90   91 ar  
   100   90  100 1   
   101   91   92 1   
   102   92  101 1   
   103  102  103 1   
   104  102  110 1   
   105  103  104 1   
   106  103  106 1   
   107  103  111 1   
   108  104  105 2   
   109  104  121 1   
   110  106  107 1   
   111  106  108 1   
   112  106  112 1   
   113  107  109 1   
   114  107  113 1   
   115  107  114 1   
   116  108  115 1   
   117  108  116 1   
   118  108  117 1   
   119  109  118 1   
   120  109  119 1   
   121  109  120 1   
   122  121  122 1   
   123  121  127 1   
   124  122  123 1   
   125  122  125 1   
   126  122  128 1   
   127  123  124 2   
   128  123  132 1   
   129  125  126 1   
   130  125  129 1   
   131  125  130 1   
   132  126  131 1   
   133  132  133 1   
   134  132  137 1   
   135  133  134 1   
   136  133  136 1   
   137  133  138 1   
   138  134  135 2   
   139  134  142 1   
   140  136  139 1   
   141  136  140 1   
   142  136  141 1   
   143  142  143 1   
   144  142  147 1   
   145  143  144 1   
   146  143  146 1   
   147  143  148 1   
   148  144  145 2   
   149  144  152 1   
   150  146  149 1   
   151  146  150 1   
   152  146  151 1   
   153  152  153 1   
   154  152  161 1   
   155  153  154 1   
   156  153  156 1   
   157  153  162 1   
   158  154  155 2   
   159  154  167 1   
   160  156  157 1   
   161  156  163 1   
   162  156  164 1   
   163  157  158 1   
   164  157  165 1   
   165  157  166 1   
   166  158  159 1   
   167  158  160 1   
   168  167  168 1   
   169  167  172 1   
   170  168  169 1   
   171  168  170 1   
   172  168  171 1   
   173  174  175 1   
   174  174  176 1   
   175  177  178 1   
   176  177  179 1   
@<TRIPOS>SUBSTRUCTURE
     1 MOL         1 TEMP              0 ****  ****    0 ROOT
