@<TRIPOS>MOLECULE
MOL
  175   173     1     0     0
SMALL
resp


@<TRIPOS>ATOM
      1 C1         -0.3640   -4.4360    5.0650 c3        1 MOL     -0.448751
      2 C2          0.4050   -4.1390    3.7340 c         1 MOL      0.681087
      3 O1         -0.1990   -4.1250    2.6430 o         1 MOL     -0.552771
      4 H1          0.3530   -4.5780    5.8730 hc        1 MOL      0.115669
      5 H2         -1.0170   -3.5960    5.3020 hc        1 MOL      0.115669
      6 H3         -0.9610   -5.3400    4.9460 hc        1 MOL      0.115669
      7 N1          1.7380   -3.9350    3.7940 n         1 MOL     -0.618943
      8 C3          2.4470   -3.5380    2.5680 c3        1 MOL      0.372700
      9 C4          2.6940   -4.6570    1.5130 c         1 MOL      0.399337
     10 O2          3.3120   -5.6850    1.9020 o         1 MOL     -0.582013
     11 C5          3.7970   -2.9630    2.8910 c3        1 MOL     -0.301663
     12 C6          4.4840   -2.2030    1.7220 c         1 MOL      0.800748
     13 O3          5.6660   -1.8690    1.8640 o         1 MOL     -0.694087
     14 O4          3.8040   -1.9130    0.7380 o         1 MOL     -0.694087
     15 H4          2.2320   -4.0130    4.6780 hn        1 MOL      0.324584
     16 H5          1.8250   -2.8430    1.9980 h1        1 MOL     -0.074726
     17 H6          4.4410   -3.6610    3.4240 hc        1 MOL      0.047780
     18 H7          3.6690   -2.1570    3.6130 hc        1 MOL      0.047780
     19 N2          2.3430   -4.4140    0.2340 n         1 MOL     -0.211625
     20 C7          2.6200   -5.2720   -0.9110 c3        1 MOL      0.122172
     21 C8          3.8010   -4.8460   -1.8190 c         1 MOL      0.591061
     22 O5          4.0740   -5.5510   -2.7850 o         1 MOL     -0.566164
     23 C9          1.3070   -5.2360   -1.6810 c3        1 MOL     -0.303327
     24 H8          1.7310   -3.6440    0.0480 hn        1 MOL      0.196724
     25 H9          2.9070   -6.2700   -0.5840 h1        1 MOL      0.028814
     26 H10         1.2470   -4.3290   -2.2810 hc        1 MOL      0.080093
     27 H11         1.2690   -6.0990   -2.3530 hc        1 MOL      0.080093
     28 H12         0.4440   -5.1260   -1.0260 hc        1 MOL      0.080093
     29 N3          4.4890   -3.7220   -1.5100 n         1 MOL     -0.597256
     30 C10         5.2800   -3.0680   -2.6720 c3        1 MOL      0.134876
     31 C11         6.4130   -2.2240   -2.2790 c         1 MOL      0.417836
     32 O6          7.2700   -1.9140   -3.1430 o         1 MOL     -0.547835
     33 C12         4.2580   -2.3790   -3.6820 c3        1 MOL     -0.230976
     34 C13         3.3450   -1.3420   -2.9930 c         1 MOL      0.665040
     35 O7          2.0670   -1.4310   -3.1290 o         1 MOL     -0.651124
     36 O8          4.0230   -0.5260   -2.3220 o         1 MOL     -0.651124
     37 H13         4.2240   -3.1190   -0.7450 hn        1 MOL      0.276894
     38 H14         5.8350   -3.8210   -3.2350 h1        1 MOL      0.079385
     39 H15         3.6400   -3.1990   -4.0640 hc        1 MOL      0.058039
     40 H16         4.8640   -1.9050   -4.4560 hc        1 MOL      0.058039
     41 N4          6.5080   -1.7720   -0.9810 n         1 MOL     -0.177255
     42 C14         7.6200   -0.8960   -0.5920 c3        1 MOL     -0.309051
     43 C15         7.5150    0.6340   -1.0880 c         1 MOL      0.514059
     44 O9          8.5640    1.3090   -1.0920 o         1 MOL     -0.599803
     45 H17         5.8290   -2.0690   -0.2940 hn        1 MOL      0.188695
     46 H18         8.5030   -1.3430   -1.0600 h1        1 MOL      0.134981
     47 H19         7.7500   -0.9440    0.4930 h1        1 MOL      0.134981
     48 N5          6.3170    1.1470   -1.2760 n         1 MOL     -0.137912
     49 C16         5.9860    2.4540   -1.8560 c3        1 MOL      0.018680
     50 C17         5.8930    3.6650   -0.8260 c         1 MOL      0.481610
     51 O10         5.6550    4.8250   -1.2170 o         1 MOL     -0.510027
     52 C18         4.8910    2.3830   -2.9370 c3        1 MOL     -0.127932
     53 C19         3.4440    2.3100   -2.4110 c         1 MOL      0.552991
     54 N6          2.4090    2.5540   -3.1860 n         1 MOL     -0.654232
     55 O11         3.2640    2.1410   -1.2050 o         1 MOL     -0.537155
     56 H20         5.5230    0.5440   -1.1050 hn        1 MOL      0.143502
     57 H21         6.8780    2.7790   -2.3930 h1        1 MOL      0.073294
     58 H22         5.1000    1.5260   -3.5670 hc        1 MOL      0.052130
     59 H23         4.9470    3.2940   -3.5410 hc        1 MOL      0.052130
     60 H24         2.5110    2.3910   -4.1800 hn        1 MOL      0.339552
     61 H25         1.4880    2.5030   -2.7720 hn        1 MOL      0.339552
     62 N7          6.1530    3.3280    0.4680 n         1 MOL     -0.412371
     63 C20         6.0110    4.4240    1.4600 c3        1 MOL     -0.043111
     64 C21         4.5630    4.8040    1.8160 c         1 MOL      0.439392
     65 O12         4.3450    5.7440    2.5400 o         1 MOL     -0.549998
     66 H26         6.2720    2.3850    0.7990 hn        1 MOL      0.278415
     67 H27         6.5350    5.3290    1.1640 h1        1 MOL      0.086421
     68 H28         6.5150    4.1470    2.3880 h1        1 MOL      0.086421
     69 N8          3.5200    4.0740    1.3310 n         1 MOL     -0.178460
     70 C22         2.0800    4.4150    1.5690 c3        1 MOL     -0.202020
     71 C23         1.1650    3.1760    1.6130 c         1 MOL      0.488717
     72 O13         1.4400    2.1790    0.9950 o         1 MOL     -0.455598
     73 C24         1.4980    5.2710    0.4080 c3        1 MOL      0.526516
     74 C25         2.0100    6.7130    0.4770 c3        1 MOL     -0.532126
     75 O14         1.7520    4.7490   -0.8600 oh        1 MOL     -0.575472
     76 H29         3.7030    3.2930    0.7230 hn        1 MOL      0.138023
     77 H30         2.0360    4.9300    2.5230 h1        1 MOL      0.117519
     78 H31         0.4120    5.2240    0.5310 h1        1 MOL     -0.043166
     79 H32         2.0360    3.8430   -0.6880 ho        1 MOL      0.344082
     80 H33         1.5180    7.3430   -0.2610 hc        1 MOL      0.132586
     81 H34         1.8240    7.1250    1.4700 hc        1 MOL      0.132586
     82 H35         3.0760    6.7150    0.2870 hc        1 MOL      0.132586
     83 N9          0.0340    3.3380    2.2630 n         1 MOL     -0.590656
     84 C26        -0.9840    2.3680    2.2450 c3        1 MOL     -0.018173
     85 C27        -1.7620    2.6980    0.9420 c         1 MOL      0.590885
     86 O15        -2.4460    3.7180    0.7750 o         1 MOL     -0.616919
     87 C28        -1.8570    2.4520    3.4670 c3        1 MOL      0.388879
     88 C29        -1.1010    2.3290    4.7910 c3        1 MOL     -0.075893
     89 C30        -3.0070    1.3730    3.4570 c3        1 MOL     -0.449394
     90 C31        -1.8030    2.2140    6.1360 c3        1 MOL      0.023939
     91 H36        -0.1760    4.2190    2.7110 hn        1 MOL      0.326416
     92 H37        -0.5860    1.3600    2.2320 h1        1 MOL      0.113922
     93 H38        -2.2930    3.4450    3.4230 hc        1 MOL     -0.077222
     94 H39        -0.4930    3.2340    4.7970 hc        1 MOL     -0.012498
     95 H40        -0.5170    1.4130    4.7080 hc        1 MOL     -0.012498
     96 H41        -3.4620    1.4360    2.4650 hc        1 MOL      0.077333
     97 H42        -2.5200    0.3990    3.5370 hc        1 MOL      0.077333
     98 H43        -3.7670    1.5320    4.2200 hc        1 MOL      0.077333
     99 H44        -2.5710    2.9830    6.2400 hc        1 MOL     -0.004086
    100 H45        -2.3330    1.2700    6.2790 hc        1 MOL     -0.004086
    101 H46        -1.1450    2.3800    6.9870 hc        1 MOL     -0.004086
    102 N10        -1.7320    1.7920   -0.0140 n         1 MOL      0.002814
    103 C32        -2.6520    1.7870   -1.2230 c3        1 MOL     -0.052003
    104 C33        -4.0730    1.3640   -0.8240 c         1 MOL      0.485955
    105 O16        -4.2780    0.7360    0.1610 o         1 MOL     -0.324993
    106 C34        -2.0470    0.9440   -2.3440 c3        1 MOL     -0.345036
    107 C35        -0.5650    1.2080   -2.5680 c         1 MOL      0.796510
    108 O17        -0.3130    2.0320   -3.4940 o         1 MOL     -0.684985
    109 O18         0.3840    0.6760   -1.9730 o         1 MOL     -0.684985
    110 H47        -1.0520    1.0510    0.0450 hn        1 MOL     -0.182619
    111 H48        -2.6650    2.7900   -1.6590 h1        1 MOL      0.082063
    112 H49        -2.5860    1.1190   -3.2800 hc        1 MOL      0.096676
    113 H50        -2.2780   -0.0630   -2.0120 hc        1 MOL      0.096676
    114 N11        -5.0870    1.8050   -1.6100 n         1 MOL     -0.639424
    115 C36        -6.4970    1.5940   -1.3270 c3        1 MOL      0.373987
    116 C37        -6.8280    0.1020   -1.0310 c         1 MOL      0.323756
    117 O19        -7.4020   -0.1640    0.0470 o         1 MOL     -0.495282
    118 C38        -7.4400    2.1760   -2.3860 c3        1 MOL     -0.275980
    119 C39        -8.9560    1.8080   -2.1560 ca        1 MOL      0.182964
    120 C40        -9.6460    0.8890   -2.9500 ca        1 MOL     -0.267049
    121 C41        -9.6920    2.4220   -1.0810 ca        1 MOL     -0.267049
    122 C42       -11.0190    0.6470   -2.6920 ca        1 MOL      0.040087
    123 C43       -11.0130    2.1720   -0.7970 ca        1 MOL      0.040087
    124 C44       -11.7640    1.3280   -1.6950 ca        1 MOL     -0.280598
    125 H51        -4.8340    2.3660   -2.4120 hn        1 MOL      0.342106
    126 H52        -6.7460    2.0240   -0.3590 h1        1 MOL      0.027578
    127 H53        -7.1630    1.7900   -3.3720 hc        1 MOL      0.080515
    128 H54        -7.2060    3.2420   -2.4210 hc        1 MOL      0.080515
    129 H55        -9.0750    0.3760   -3.7180 ha        1 MOL      0.133440
    130 H56        -9.1220    3.0530   -0.4240 ha        1 MOL      0.133440
    131 H57       -11.5520   -0.0030   -3.3670 ha        1 MOL      0.078580
    132 H58       -11.4290    2.6760    0.0630 ha        1 MOL      0.078580
    133 H59       -12.7780    0.9990   -1.5100 ha        1 MOL      0.143857
    134 N12        -6.2670   -0.8860   -1.7800 n         1 MOL     -0.059481
    135 C45        -6.4760   -2.2730   -1.4710 c3        1 MOL     -0.092384
    136 C46        -5.6740   -2.7390   -0.2390 c         1 MOL      0.451874
    137 O20        -6.0820   -3.7260    0.3570 o         1 MOL     -0.526465
    138 C47        -6.1830   -3.0970   -2.7280 c3        1 MOL     -0.099712
    139 C48        -5.0820   -2.2660   -3.4160 c3        1 MOL      0.047104
    140 C49        -5.4810   -0.8520   -3.0160 c3        1 MOL     -0.078589
    141 H60        -7.5030   -2.5030   -1.1760 h1        1 MOL      0.086352
    142 H61        -5.9070   -4.1310   -2.5460 hc        1 MOL      0.058290
    143 H62        -7.0720   -3.0720   -3.3590 hc        1 MOL      0.058290
    144 H63        -4.0880   -2.4510   -3.0100 hc        1 MOL      0.014898
    145 H64        -5.2050   -2.4940   -4.4710 hc        1 MOL      0.014898
    146 H65        -4.5160   -0.3490   -2.9200 h1        1 MOL      0.039034
    147 H66        -6.0300   -0.4320   -3.8640 h1        1 MOL      0.039034
    148 N13        -4.6680   -2.0050    0.2970 n         1 MOL     -0.265719
    149 C50        -3.9370   -2.4470    1.4840 c3        1 MOL     -0.001968
    150 C51        -4.6890   -1.9790    2.7810 c         1 MOL      0.389135
    151 O21        -4.8520   -2.7370    3.7310 o         1 MOL     -0.547341
    152 C52        -2.6100   -1.8450    1.4910 c3        1 MOL      0.023593
    153 C53        -1.8170   -2.2170    0.2230 c3        1 MOL     -0.376100
    154 C54        -0.3780   -1.7480    0.3330 c         1 MOL      0.809529
    155 O22         0.5430   -2.1780   -0.3270 o         1 MOL     -0.683806
    156 O23        -0.1500   -0.6640    0.9610 o         1 MOL     -0.683806
    157 H67        -4.4570   -1.0740   -0.0340 hn        1 MOL      0.268583
    158 H68        -3.8980   -3.5220    1.6500 h1        1 MOL      0.095561
    159 H69        -2.0520   -2.2320    2.3420 hc        1 MOL      0.034267
    160 H70        -2.6410   -0.7650    1.5890 hc        1 MOL      0.034267
    161 H71        -2.2360   -1.6340   -0.5860 hc        1 MOL      0.113529
    162 H72        -1.7960   -3.2970    0.0540 hc        1 MOL      0.113529
    163 N14        -5.3180   -0.7990    2.6840 n         1 MOL      0.039015
    164 C55        -6.2610   -0.2890    3.6660 c3        1 MOL     -0.214848
    165 H73        -7.2430   -0.1840    3.2040 h1        1 MOL      0.076337
    166 H74        -6.3270   -0.9830    4.5030 h1        1 MOL      0.076337
    167 H75        -5.9230    0.6830    4.0250 h1        1 MOL      0.076337
    168 H76        -5.3130   -0.4370    1.7450 hn        1 MOL      0.051631
    169 Ca1         2.1230   -0.1050   -0.3050 Ca        1 MOL      1.686529
    170 O24         1.9020   -0.3410    2.8090 oh        1 MOL     -0.738329
    171 H77         1.8370   -0.6080    3.7240 ho        1 MOL      0.357692
    172 H78         1.0230   -0.4620    2.4550 ho        1 MOL      0.357692
    173 O25         4.2760    0.7330    1.1210 oh        1 MOL     -0.738329
    174 H79         3.9510    0.8730    2.0070 ho        1 MOL      0.357692
    175 H80         4.8940    0.0050    1.1980 ho        1 MOL      0.357692
@<TRIPOS>BOND
     1    1    2 1   
     2    1    4 1   
     3    1    5 1   
     4    1    6 1   
     5    2    3 2   
     6    2    7 1   
     7    7    8 1   
     8    7   15 1   
     9    8    9 1   
    10    8   11 1   
    11    8   16 1   
    12    9   10 2   
    13    9   19 1   
    14   11   12 1   
    15   11   17 1   
    16   11   18 1   
    17   12   13 1   
    18   12   14 1   
    19   19   20 1   
    20   19   24 1   
    21   20   21 1   
    22   20   23 1   
    23   20   25 1   
    24   21   22 2   
    25   21   29 1   
    26   23   26 1   
    27   23   27 1   
    28   23   28 1   
    29   29   30 1   
    30   29   37 1   
    31   30   31 1   
    32   30   33 1   
    33   30   38 1   
    34   31   32 2   
    35   31   41 1   
    36   33   34 1   
    37   33   39 1   
    38   33   40 1   
    39   34   35 1   
    40   34   36 1   
    41   41   42 1   
    42   41   45 1   
    43   42   43 1   
    44   42   46 1   
    45   42   47 1   
    46   43   44 2   
    47   43   48 1   
    48   48   49 1   
    49   48   56 1   
    50   49   50 1   
    51   49   52 1   
    52   49   57 1   
    53   50   51 2   
    54   50   62 1   
    55   52   53 1   
    56   52   58 1   
    57   52   59 1   
    58   53   54 1   
    59   53   55 2   
    60   54   60 1   
    61   54   61 1   
    62   62   63 1   
    63   62   66 1   
    64   63   64 1   
    65   63   67 1   
    66   63   68 1   
    67   64   65 2   
    68   64   69 1   
    69   69   70 1   
    70   69   76 1   
    71   70   71 1   
    72   70   73 1   
    73   70   77 1   
    74   71   72 2   
    75   71   83 1   
    76   73   74 1   
    77   73   75 1   
    78   73   78 1   
    79   74   80 1   
    80   74   81 1   
    81   74   82 1   
    82   75   79 1   
    83   83   84 1   
    84   83   91 1   
    85   84   85 1   
    86   84   87 1   
    87   84   92 1   
    88   85   86 2   
    89   85  102 1   
    90   87   88 1   
    91   87   89 1   
    92   87   93 1   
    93   88   90 1   
    94   88   94 1   
    95   88   95 1   
    96   89   96 1   
    97   89   97 1   
    98   89   98 1   
    99   90   99 1   
   100   90  100 1   
   101   90  101 1   
   102  102  103 1   
   103  102  110 1   
   104  103  104 1   
   105  103  106 1   
   106  103  111 1   
   107  104  105 2   
   108  104  114 1   
   109  106  107 1   
   110  106  112 1   
   111  106  113 1   
   112  107  108 1   
   113  107  109 1   
   114  114  115 1   
   115  114  125 1   
   116  115  116 1   
   117  115  118 1   
   118  115  126 1   
   119  116  117 2   
   120  116  134 1   
   121  118  119 1   
   122  118  127 1   
   123  118  128 1   
   124  119  120 ar  
   125  119  121 ar  
   126  120  122 ar  
   127  120  129 1   
   128  121  123 ar  
   129  121  130 1   
   130  122  124 ar  
   131  122  131 1   
   132  123  124 ar  
   133  123  132 1   
   134  124  133 1   
   135  134  135 1   
   136  134  140 1   
   137  135  136 1   
   138  135  138 1   
   139  135  141 1   
   140  136  137 2   
   141  136  148 1   
   142  138  139 1   
   143  138  142 1   
   144  138  143 1   
   145  139  140 1   
   146  139  144 1   
   147  139  145 1   
   148  140  146 1   
   149  140  147 1   
   150  148  149 1   
   151  148  157 1   
   152  149  150 1   
   153  149  152 1   
   154  149  158 1   
   155  150  151 2   
   156  150  163 1   
   157  152  153 1   
   158  152  159 1   
   159  152  160 1   
   160  153  154 1   
   161  153  161 1   
   162  153  162 1   
   163  154  155 1   
   164  154  156 1   
   165  163  164 1   
   166  163  168 1   
   167  164  165 1   
   168  164  166 1   
   169  164  167 1   
   170  170  171 1   
   171  170  172 1   
   172  173  174 1   
   173  173  175 1   
@<TRIPOS>SUBSTRUCTURE
     1 MOL         1 TEMP              0 ****  ****    0 ROOT
