@<TRIPOS>MOLECULE
MOL
  189   185     1     0     0
SMALL
resp


@<TRIPOS>ATOM
      1 C1         -0.2130    3.7430   -4.3140 c3        1 MOL     -0.273422
      2 C2          0.3870    3.1030   -3.0770 c         1 MOL      0.556565
      3 O1         -0.2240    3.2600   -1.9780 o         1 MOL     -0.570307
      4 H1         -0.7330    2.9840   -4.8980 hc        1 MOL      0.074403
      5 H2         -0.9170    4.5190   -4.0170 hc        1 MOL      0.074403
      6 H3          0.5820    4.1830   -4.9170 hc        1 MOL      0.074403
      7 N1          1.4710    2.3170   -3.2270 n         1 MOL     -0.510398
      8 C3          2.2140    1.7960   -2.0440 c3        1 MOL      0.097742
      9 C4          3.0260    2.9080   -1.3430 c         1 MOL      0.564548
     10 O2          4.2150    3.0980   -1.6060 o         1 MOL     -0.510120
     11 C5          3.0360    0.5770   -2.4010 c3        1 MOL     -0.370074
     12 C6          3.9080    0.1040   -1.2560 c         1 MOL      0.678689
     13 O3          3.5990    0.3590   -0.0960 o         1 MOL     -0.636035
     14 O4          4.8310   -0.6910   -1.5620 o         1 MOL     -0.636035
     15 H4          1.9870    2.2210   -4.0880 hn        1 MOL      0.327607
     16 H5          1.4160    1.3780   -1.4250 h1        1 MOL      0.130738
     17 H6          3.7120    0.8160   -3.2240 hc        1 MOL      0.084193
     18 H7          2.3870   -0.2580   -2.6710 hc        1 MOL      0.084193
     19 N2          2.3680    3.8010   -0.5930 n         1 MOL     -0.533666
     20 C7          2.9530    5.0530   -0.0770 c3        1 MOL      0.050228
     21 C8          3.8590    4.8680    1.1780 c         1 MOL      0.367514
     22 O5          4.7050    5.6950    1.4010 o         1 MOL     -0.509284
     23 C9          1.7700    6.0570    0.1650 c3        1 MOL     -0.059736
     24 C10         1.1650    6.5560   -1.1250 c3        1 MOL     -0.146990
     25 C11         0.3200    7.7620   -0.9050 c3        1 MOL      0.178769
     26 C12        -0.3960    8.4710   -2.0630 c3        1 MOL     -0.081507
     27 N3         -1.6270    7.7920   -2.5460 n4        1 MOL     -0.392008
     28 H8          1.3990    3.6020   -0.3580 hn        1 MOL      0.404467
     29 H9          3.5030    5.4930   -0.9070 h1        1 MOL      0.096322
     30 H10         2.3400    6.8230    0.6780 hc        1 MOL      0.048217
     31 H11         1.1090    5.5630    0.8630 hc        1 MOL      0.048217
     32 H12         0.4510    5.8560   -1.5410 hc        1 MOL      0.051451
     33 H13         1.9920    6.9350   -1.7310 hc        1 MOL      0.051451
     34 H14         0.9330    8.4800   -0.3650 hc        1 MOL     -0.002695
     35 H15        -0.3680    7.5100   -0.0960 hc        1 MOL     -0.002695
     36 H16         0.2240    8.6050   -2.9470 hx        1 MOL      0.095965
     37 H17        -0.6470    9.4160   -1.5790 hx        1 MOL      0.095965
     38 H18        -2.3740    8.4640   -2.6450 hn        1 MOL      0.347890
     39 H19        -1.5090    7.4170   -3.4720 hn        1 MOL      0.347890
     40 H20        -1.9000    7.1540   -1.8070 hn        1 MOL      0.347890
     41 N4          3.5770    3.8730    2.0070 n         1 MOL     -0.230918
     42 C13         4.5510    3.3490    2.9640 c3        1 MOL      0.040034
     43 C14         5.7020    2.5160    2.3810 c         1 MOL      0.404268
     44 O6          6.7730    2.4730    2.9970 o         1 MOL     -0.519602
     45 C15         3.9440    2.4730    4.0700 c3        1 MOL     -0.483156
     46 C16         2.8060    1.6160    3.6590 c         1 MOL      0.960257
     47 O7          1.9380    1.4420    4.5320 o         1 MOL     -0.761317
     48 O8          2.8700    0.9260    2.6290 o         1 MOL     -0.761317
     49 H21         2.7410    3.3390    1.8500 hn        1 MOL      0.184805
     50 H22         5.1690    4.1580    3.3440 h1        1 MOL      0.103297
     51 H23         3.5920    3.2130    4.7910 hc        1 MOL      0.130321
     52 H24         4.7090    1.8420    4.5080 hc        1 MOL      0.130321
     53 N5          5.6490    2.0930    1.0580 n         1 MOL     -0.000452
     54 C17         6.7850    1.5310    0.3430 c3        1 MOL     -0.150514
     55 C18         7.3230    0.2320    0.8430 c         1 MOL      0.534683
     56 O9          8.4960    0.1110    1.1600 o         1 MOL     -0.565443
     57 H25         4.7590    2.1420    0.5850 hn        1 MOL      0.057765
     58 H26         7.5330    2.3290    0.3610 h1        1 MOL      0.074728
     59 H27         6.4850    1.3940   -0.7000 h1        1 MOL      0.074728
     60 N6          6.4610   -0.8360    0.9830 n         1 MOL     -0.228324
     61 C19         6.8010   -2.1910    1.4260 c3        1 MOL     -0.001048
     62 C20         6.6130   -3.1920    0.3300 c         1 MOL      0.418059
     63 O10         6.6810   -4.4360    0.5670 o         1 MOL     -0.559515
     64 C21         5.9250   -2.4820    2.6220 c3        1 MOL     -0.020962
     65 C22         4.4620   -2.3710    2.3220 c         1 MOL      0.644863
     66 O11         3.9820   -2.4190    1.1800 o         1 MOL     -0.711894
     67 O12         3.6570   -2.0040    3.2860 o         1 MOL     -0.711894
     68 H28         5.4990   -0.5990    0.7930 hn        1 MOL      0.123135
     69 H29         7.8100   -2.3620    1.8120 h1        1 MOL      0.102336
     70 H30         6.1130   -1.8180    3.4670 hc        1 MOL      0.033851
     71 H31         6.1180   -3.5080    2.9400 hc        1 MOL      0.033851
     72 N7          6.3700   -2.8810   -0.9490 n         1 MOL     -0.339793
     73 C23         6.3660   -3.8540   -2.0730 c3        1 MOL     -0.010401
     74 C24         4.9810   -4.1920   -2.4810 c         1 MOL      0.450487
     75 O13         4.9380   -5.1740   -3.2400 o         1 MOL     -0.577326
     76 H32         6.2050   -1.9020   -1.0900 hn        1 MOL      0.222720
     77 H33         6.9130   -4.7580   -1.8180 h1        1 MOL      0.091647
     78 H34         6.9010   -3.4980   -2.9610 h1        1 MOL      0.091647
     79 N8          3.9300   -3.6740   -1.8510 n         1 MOL     -0.157329
     80 C25         2.5690   -4.2260   -1.9850 c3        1 MOL     -0.369967
     81 C26         1.4410   -3.1530   -1.7780 c         1 MOL      0.747610
     82 O14         1.6330   -2.3070   -0.9110 o         1 MOL     -0.591986
     83 C27         2.4120   -5.4090   -0.8820 c3        1 MOL      0.585758
     84 C28         2.9100   -6.8000   -1.3840 c3        1 MOL     -0.524163
     85 O15         3.0860   -4.9930    0.3550 oh        1 MOL     -0.661520
     86 H35         4.1990   -3.0690   -1.0940 hn        1 MOL      0.194952
     87 H36         2.4320   -4.7770   -2.9200 h1        1 MOL      0.141057
     88 H37         1.3690   -5.5890   -0.6180 h1        1 MOL     -0.050241
     89 H38         3.4840   -4.1210    0.2700 ho        1 MOL      0.445806
     90 H39         2.4290   -6.9680   -2.3410 hc        1 MOL      0.139455
     91 H40         3.9890   -6.7660   -1.5470 hc        1 MOL      0.139455
     92 H41         2.6720   -7.5500   -0.6300 hc        1 MOL      0.139455
     93 N9          0.2950   -3.2290   -2.4560 n         1 MOL     -0.656807
     94 C29        -0.8830   -2.3800   -2.4440 c3        1 MOL      0.156883
     95 C30        -2.0170   -2.9660   -1.7090 c         1 MOL      0.429464
     96 O16        -2.4550   -4.0980   -2.0180 o         1 MOL     -0.559367
     97 C31        -1.2640   -2.0240   -3.8890 c3        1 MOL      0.257592
     98 C32        -0.1270   -1.2570   -4.6030 c3        1 MOL      0.100673
     99 C33        -2.6230   -1.2160   -3.8550 c3        1 MOL     -0.561919
    100 C34        -0.3380   -1.1210   -6.1520 c3        1 MOL     -0.201466
    101 H42         0.2960   -3.8910   -3.2260 hn        1 MOL      0.290511
    102 H43        -0.5590   -1.4680   -1.9440 h1        1 MOL      0.057489
    103 H44        -1.4590   -3.0170   -4.3060 hc        1 MOL     -0.039540
    104 H45         0.8290   -1.7720   -4.5560 hc        1 MOL      0.002304
    105 H46        -0.0600   -0.2710   -4.1450 hc        1 MOL      0.002304
    106 H47        -2.3200   -0.3250   -3.2940 hc        1 MOL      0.127371
    107 H48        -2.9700   -1.0370   -4.8650 hc        1 MOL      0.127371
    108 H49        -3.4250   -1.8100   -3.4310 hc        1 MOL      0.127371
    109 H50        -1.3410   -0.7320   -6.3420 hc        1 MOL      0.041653
    110 H51         0.5050   -0.5720   -6.5730 hc        1 MOL      0.041653
    111 H52        -0.2000   -2.1320   -6.5350 hc        1 MOL      0.041653
    112 N10        -2.5220   -2.2960   -0.6950 n         1 MOL     -0.098624
    113 C35        -3.7370   -2.7870    0.0430 c3        1 MOL     -0.053246
    114 C36        -5.0660   -2.1830   -0.4630 c         1 MOL      0.461751
    115 O17        -5.0520   -1.2460   -1.3110 o         1 MOL     -0.446622
    116 C37        -3.5080   -2.4960    1.5340 c3        1 MOL      0.215297
    117 C38        -2.3290   -3.2960    2.1120 c3        1 MOL     -0.435902
    118 O18        -3.2050   -1.1300    1.6510 oh        1 MOL     -0.596008
    119 H53        -2.1510   -1.4080   -0.4080 hn        1 MOL      0.262743
    120 H54        -3.8410   -3.8580   -0.1590 h1        1 MOL      0.065572
    121 H55        -4.4040   -2.6730    2.1190 h1        1 MOL     -0.020674
    122 H56        -2.3240   -0.9570    1.3100 ho        1 MOL      0.392338
    123 H57        -2.6790   -4.3080    2.3260 hc        1 MOL      0.131401
    124 H58        -1.5210   -3.2360    1.3870 hc        1 MOL      0.131401
    125 H59        -2.0170   -2.8080    3.0430 hc        1 MOL      0.131401
    126 N11        -6.2380   -2.5820   -0.0860 n         1 MOL     -0.381399
    127 C39        -7.5510   -1.9530   -0.6310 c3        1 MOL     -0.095293
    128 C40        -7.7110   -0.5030   -0.1460 c         1 MOL      0.538296
    129 O19        -8.4120    0.2360   -0.8330 o         1 MOL     -0.512592
    130 C41        -8.7720   -2.7740   -0.2260 c3        1 MOL      0.084610
    131 C42        -8.5600   -4.2240   -0.7100 c3        1 MOL     -0.277664
    132 O20        -8.9500   -2.9080    1.1840 oh        1 MOL     -0.596701
    133 H60        -6.2910   -3.0620    0.8020 hn        1 MOL      0.297060
    134 H61        -7.5720   -1.9140   -1.7150 h1        1 MOL      0.169682
    135 H62        -9.6790   -2.3940   -0.6920 h1        1 MOL      0.094905
    136 H63        -9.8340   -3.2760    1.1580 ho        1 MOL      0.415246
    137 H64        -9.4670   -4.8420   -0.6510 hc        1 MOL      0.086986
    138 H65        -8.2790   -4.2790   -1.7610 hc        1 MOL      0.086986
    139 H66        -7.7770   -4.7950   -0.2140 hc        1 MOL      0.086986
    140 N12        -7.0080   -0.1280    0.9470 n         1 MOL     -0.327951
    141 C43        -6.8870    1.1840    1.6500 c3        1 MOL     -0.126026
    142 C44        -6.0620    2.0660    0.7580 c         1 MOL      0.413481
    143 O21        -6.3840    3.2130    0.5070 o         1 MOL     -0.515048
    144 C45        -6.3640    1.0650    3.0840 c3        1 MOL     -0.097378
    145 C46        -7.4660    0.4620    4.0380 c3        1 MOL      0.228865
    146 C47        -7.1070    0.1500    5.5440 c3        1 MOL     -0.198614
    147 C48        -5.8510   -0.7160    5.5370 c3        1 MOL      0.200958
    148 N13        -5.3580   -1.0980    6.8480 n4        1 MOL     -0.449975
    149 H67        -6.4370   -0.8050    1.4240 hn        1 MOL      0.270793
    150 H68        -7.9080    1.5510    1.7020 h1        1 MOL      0.133090
    151 H69        -6.0810    2.0690    3.4100 hc        1 MOL      0.050711
    152 H70        -5.4120    0.5470    3.1670 hc        1 MOL      0.050711
    153 H71        -7.8040   -0.4790    3.6000 hc        1 MOL     -0.025378
    154 H72        -8.3140    1.1520    4.0630 hc        1 MOL     -0.025378
    155 H73        -7.9040   -0.4850    5.9530 hc        1 MOL      0.061629
    156 H74        -7.0060    1.0960    6.0720 hc        1 MOL      0.061629
    157 H75        -5.0820   -0.2560    4.9140 hx        1 MOL      0.042541
    158 H76        -6.1960   -1.6060    4.9960 hx        1 MOL      0.042541
    159 H77        -4.8810   -0.3320    7.3000 hn        1 MOL      0.337017
    160 H78        -6.1160   -1.3560    7.4580 hn        1 MOL      0.337017
    161 H79        -4.6400   -1.8120    6.8140 hn        1 MOL      0.337017
    162 N14        -4.9480    1.5550    0.2370 n         1 MOL     -0.044869
    163 C49        -4.0820    2.2690   -0.7020 c3        1 MOL     -0.274343
    164 C50        -4.8070    2.4220   -2.1140 c         1 MOL      0.524990
    165 O22        -4.4840    3.4320   -2.7650 o         1 MOL     -0.582563
    166 C51        -2.8030    1.3740   -0.8470 c3        1 MOL     -0.011767
    167 C52        -1.8410    1.6280    0.4140 c3        1 MOL     -0.192196
    168 C53        -0.6290    0.7530    0.5110 c         1 MOL      0.747843
    169 O23        -0.6790   -0.4840    0.3930 o         1 MOL     -0.768627
    170 O24         0.4990    1.2820    0.7600 o         1 MOL     -0.768627
    171 H80        -4.7270    0.5830    0.4210 hn        1 MOL      0.115940
    172 H81        -3.7310    3.1670   -0.1890 h1        1 MOL      0.155754
    173 H82        -2.2220    1.6650   -1.7220 hc        1 MOL      0.047953
    174 H83        -3.1020    0.3230   -0.7820 hc        1 MOL      0.047953
    175 H84        -2.4650    1.4070    1.2850 hc        1 MOL      0.036529
    176 H85        -1.5290    2.6740    0.4170 hc        1 MOL      0.036529
    177 N15        -5.7950    1.6040   -2.4840 n         1 MOL     -0.132357
    178 C54        -6.6070    1.8670   -3.7620 c3        1 MOL     -0.308184
    179 H86        -6.9050    0.9160   -4.2050 h1        1 MOL      0.128436
    180 H87        -7.4970    2.4460   -3.5150 h1        1 MOL      0.128436
    181 H88        -5.9970    2.4230   -4.4730 h1        1 MOL      0.128436
    182 H89        -5.9130    0.7420   -1.9810 hn        1 MOL      0.149375
    183 Ca1         1.8910   -0.9590    1.3260 Ca        1 MOL      1.791571
    184 O25         0.6990   -0.8440    3.8240 oh        1 MOL     -0.912843
    185 H90         1.1580   -0.0350    4.0650 ho        1 MOL      0.411769
    186 H91         0.2930   -1.1410    4.6340 ho        1 MOL      0.411769
    187 O26         0.7940   -3.7400    1.5220 oh        1 MOL     -0.912843
    188 H92         0.4340   -4.1230    2.3200 ho        1 MOL      0.411769
    189 H93         1.4460   -4.3750    1.2230 ho        1 MOL      0.411769
@<TRIPOS>BOND
     1    1    2 1   
     2    1    4 1   
     3    1    5 1   
     4    1    6 1   
     5    2    3 2   
     6    2    7 1   
     7    7    8 1   
     8    7   15 1   
     9    8    9 1   
    10    8   11 1   
    11    8   16 1   
    12    9   10 2   
    13    9   19 1   
    14   11   12 1   
    15   11   17 1   
    16   11   18 1   
    17   12   13 1   
    18   12   14 1   
    19   19   20 1   
    20   19   28 1   
    21   20   21 1   
    22   20   23 1   
    23   20   29 1   
    24   21   22 2   
    25   21   41 1   
    26   23   24 1   
    27   23   30 1   
    28   23   31 1   
    29   24   25 1   
    30   24   32 1   
    31   24   33 1   
    32   25   26 1   
    33   25   34 1   
    34   25   35 1   
    35   26   27 1   
    36   26   36 1   
    37   26   37 1   
    38   27   38 1   
    39   27   39 1   
    40   27   40 1   
    41   41   42 1   
    42   41   49 1   
    43   42   43 1   
    44   42   45 1   
    45   42   50 1   
    46   43   44 2   
    47   43   53 1   
    48   45   46 1   
    49   45   51 1   
    50   45   52 1   
    51   46   47 1   
    52   46   48 1   
    53   53   54 1   
    54   53   57 1   
    55   54   55 1   
    56   54   58 1   
    57   54   59 1   
    58   55   56 2   
    59   55   60 1   
    60   60   61 1   
    61   60   68 1   
    62   61   62 1   
    63   61   64 1   
    64   61   69 1   
    65   62   63 2   
    66   62   72 1   
    67   64   65 1   
    68   64   70 1   
    69   64   71 1   
    70   65   66 1   
    71   65   67 1   
    72   72   73 1   
    73   72   76 1   
    74   73   74 1   
    75   73   77 1   
    76   73   78 1   
    77   74   75 2   
    78   74   79 1   
    79   79   80 1   
    80   79   86 1   
    81   80   81 1   
    82   80   83 1   
    83   80   87 1   
    84   81   82 2   
    85   81   93 1   
    86   83   84 1   
    87   83   85 1   
    88   83   88 1   
    89   84   90 1   
    90   84   91 1   
    91   84   92 1   
    92   85   89 1   
    93   93   94 1   
    94   93  101 1   
    95   94   95 1   
    96   94   97 1   
    97   94  102 1   
    98   95   96 2   
    99   95  112 1   
   100   97   98 1   
   101   97   99 1   
   102   97  103 1   
   103   98  100 1   
   104   98  104 1   
   105   98  105 1   
   106   99  106 1   
   107   99  107 1   
   108   99  108 1   
   109  100  109 1   
   110  100  110 1   
   111  100  111 1   
   112  112  113 1   
   113  112  119 1   
   114  113  114 1   
   115  113  116 1   
   116  113  120 1   
   117  114  115 2   
   118  114  126 1   
   119  116  117 1   
   120  116  118 1   
   121  116  121 1   
   122  117  123 1   
   123  117  124 1   
   124  117  125 1   
   125  118  122 1   
   126  126  127 1   
   127  126  133 1   
   128  127  128 1   
   129  127  130 1   
   130  127  134 1   
   131  128  129 2   
   132  128  140 1   
   133  130  131 1   
   134  130  132 1   
   135  130  135 1   
   136  131  137 1   
   137  131  138 1   
   138  131  139 1   
   139  132  136 1   
   140  140  141 1   
   141  140  149 1   
   142  141  142 1   
   143  141  144 1   
   144  141  150 1   
   145  142  143 2   
   146  142  162 1   
   147  144  145 1   
   148  144  151 1   
   149  144  152 1   
   150  145  146 1   
   151  145  153 1   
   152  145  154 1   
   153  146  147 1   
   154  146  155 1   
   155  146  156 1   
   156  147  148 1   
   157  147  157 1   
   158  147  158 1   
   159  148  159 1   
   160  148  160 1   
   161  148  161 1   
   162  162  163 1   
   163  162  171 1   
   164  163  164 1   
   165  163  166 1   
   166  163  172 1   
   167  164  165 2   
   168  164  177 1   
   169  166  167 1   
   170  166  173 1   
   171  166  174 1   
   172  167  168 1   
   173  167  175 1   
   174  167  176 1   
   175  168  169 1   
   176  168  170 1   
   177  177  178 1   
   178  177  182 1   
   179  178  179 1   
   180  178  180 1   
   181  178  181 1   
   182  184  185 1   
   183  184  186 1   
   184  187  188 1   
   185  187  189 1   
@<TRIPOS>SUBSTRUCTURE
     1 MOL         1 TEMP              0 ****  ****    0 ROOT
