@<TRIPOS>MOLECULE
MOL
  189   185     1     0     0
SMALL
resp


@<TRIPOS>ATOM
      1 C1          0.0370   -4.2710    6.0710 c3        1 MOL     -0.443292
      2 C2          0.6850   -3.7210    4.7940 c         1 MOL      0.724317
      3 O1          0.7940   -2.5080    4.7160 o         1 MOL     -0.607670
      4 H1         -0.9880   -3.9050    6.1440 hc        1 MOL      0.111375
      5 H2          0.0320   -5.3600    6.0360 hc        1 MOL      0.111375
      6 H3          0.6040   -3.9370    6.9400 hc        1 MOL      0.111375
      7 N1          0.9690   -4.5160    3.7610 n         1 MOL     -0.611471
      8 C3          1.5160   -4.1130    2.5090 c3        1 MOL      0.291956
      9 C4          1.2800   -5.0830    1.3480 c         1 MOL      0.395233
     10 O2          1.6180   -6.2420    1.5500 o         1 MOL     -0.571008
     11 C5          3.0300   -3.9310    2.7290 c3        1 MOL     -0.417594
     12 C6          3.7700   -3.2230    1.6180 c         1 MOL      0.828849
     13 O3          5.0010   -3.0900    1.7690 o         1 MOL     -0.710644
     14 O4          3.1660   -2.7480    0.6030 o         1 MOL     -0.710644
     15 H4          0.7940   -5.5030    3.8950 hn        1 MOL      0.303502
     16 H5          1.1010   -3.1380    2.2280 h1        1 MOL      0.035551
     17 H6          3.4830   -4.9180    2.8730 hc        1 MOL      0.106888
     18 H7          3.1980   -3.3330    3.6210 hc        1 MOL      0.106888
     19 N2          0.9490   -4.6590    0.1150 n         1 MOL     -0.092913
     20 C7          0.6920   -5.5580   -1.0800 c3        1 MOL     -0.195892
     21 C8          1.8980   -5.4800   -2.0870 c         1 MOL      0.683716
     22 O5          2.1150   -6.3340   -2.9180 o         1 MOL     -0.603673
     23 C9         -0.7630   -5.3140   -1.5970 c3        1 MOL      0.336046
     24 C10        -1.8500   -5.2080   -0.4520 c3        1 MOL     -0.139704
     25 C11        -1.1920   -6.4030   -2.5380 c3        1 MOL     -0.402127
     26 C12        -3.0570   -4.3910   -0.9230 c3        1 MOL     -0.220336
     27 H8          0.9030   -3.6630   -0.0490 hn        1 MOL      0.106150
     28 H9          0.7540   -6.5850   -0.7200 h1        1 MOL      0.069924
     29 H10        -0.7340   -4.3610   -2.1370 hc        1 MOL      0.010999
     30 H11        -1.4260   -4.6720    0.4030 hc        1 MOL      0.034503
     31 H12        -2.1570   -6.2030   -0.1560 hc        1 MOL      0.034503
     32 H13        -0.9080   -7.3800   -2.1500 hc        1 MOL      0.084381
     33 H14        -2.2840   -6.3680   -2.5940 hc        1 MOL      0.084381
     34 H15        -0.8120   -6.2190   -3.5430 hc        1 MOL      0.084381
     35 H16        -3.8520   -4.2220   -0.1890 hc        1 MOL      0.074550
     36 H17        -2.7610   -3.3900   -1.2230 hc        1 MOL      0.074550
     37 H18        -3.5270   -4.9530   -1.7300 hc        1 MOL      0.074550
     38 N3          2.6770   -4.4370   -2.0060 n         1 MOL     -0.500993
     39 C13         3.5320   -3.9960   -3.1240 c3        1 MOL      0.128137
     40 C14         5.0400   -3.6630   -2.8630 c         1 MOL      0.455840
     41 O6          5.8840   -3.8040   -3.7420 o         1 MOL     -0.542577
     42 C15         2.7140   -2.9200   -3.9020 c3        1 MOL     -0.167772
     43 C16         2.5660   -1.6040   -3.1690 c         1 MOL      0.811575
     44 O7          3.2460   -1.3660   -2.1660 o         1 MOL     -0.731279
     45 O8          1.6160   -0.8810   -3.6080 o         1 MOL     -0.731279
     46 H19         2.6300   -3.8490   -1.1820 hn        1 MOL      0.230917
     47 H20         3.5690   -4.8410   -3.8040 h1        1 MOL      0.055549
     48 H21         1.7310   -3.2090   -4.2790 hc        1 MOL      0.032307
     49 H22         3.3660   -2.6590   -4.7410 hc        1 MOL      0.032307
     50 N4          5.3610   -3.1460   -1.5990 n         1 MOL     -0.234959
     51 C17         6.7720   -2.8550   -1.1650 c3        1 MOL     -0.416635
     52 C18         7.2610   -1.3990   -1.3960 c         1 MOL      0.594801
     53 O9          8.4590   -1.2230   -1.2900 o         1 MOL     -0.618185
     54 H23         4.6130   -2.8260   -1.0000 hn        1 MOL      0.174158
     55 H24         7.4460   -3.4730   -1.7660 h1        1 MOL      0.181755
     56 H25         6.7950   -3.0450   -0.0930 h1        1 MOL      0.181755
     57 N5          6.4520   -0.4320   -1.8360 n         1 MOL     -0.233189
     58 C19         6.8370    0.9700   -2.2430 c3        1 MOL     -0.077054
     59 C20         7.3830    1.8320   -1.1060 c         1 MOL      0.397104
     60 O10         8.0450    2.8750   -1.3710 o         1 MOL     -0.554010
     61 C21         5.6740    1.6900   -2.9560 c3        1 MOL     -0.339364
     62 C22         4.3550    1.8480   -2.1450 c         1 MOL      0.906625
     63 O11         4.1910    1.3400   -1.0340 o         1 MOL     -0.747402
     64 O12         3.4840    2.4450   -2.7700 o         1 MOL     -0.747402
     65 H26         5.4770   -0.6720   -1.8360 hn        1 MOL      0.223065
     66 H27         7.6360    0.7980   -2.9670 h1        1 MOL      0.115439
     67 H28         5.4050    1.0870   -3.8310 hc        1 MOL      0.097072
     68 H29         5.9950    2.7060   -3.1770 hc        1 MOL      0.097072
     69 N6          7.0740    1.5490    0.1370 n         1 MOL     -0.081761
     70 C23         7.3690    2.4380    1.2160 c3        1 MOL     -0.201863
     71 C24         6.2280    3.4880    1.4930 c         1 MOL      0.567042
     72 O13         6.4360    4.5110    2.2040 o         1 MOL     -0.612968
     73 H30         6.5340    0.7180    0.3040 hn        1 MOL      0.164330
     74 H31         8.2530    3.0590    1.0700 h1        1 MOL      0.085283
     75 H32         7.4230    1.8060    2.0970 h1        1 MOL      0.085283
     76 N7          5.0620    3.3220    0.8830 n         1 MOL     -0.305082
     77 C25         3.8610    4.1480    1.1660 c3        1 MOL      0.011068
     78 C26         2.6060    3.3650    1.4980 c         1 MOL      0.419665
     79 O14         2.5360    2.1240    1.2600 o         1 MOL     -0.562153
     80 C27         3.5280    5.1250   -0.0440 c3        1 MOL     -0.207187
     81 C28         4.5000    6.3310    0.0650 c3        1 MOL     -0.103795
     82 C29         4.1030    7.5190   -0.8410 c         1 MOL      0.615384
     83 N8          3.9540    7.3390   -2.1690 n         1 MOL     -0.818716
     84 O15         3.9890    8.6470   -0.3740 o         1 MOL     -0.580152
     85 H33         4.9530    2.6170    0.1670 hn        1 MOL      0.249328
     86 H34         3.9460    4.7420    2.0800 h1        1 MOL      0.079485
     87 H35         2.4920    5.4370    0.0690 hc        1 MOL      0.094629
     88 H36         3.6440    4.6930   -1.0430 hc        1 MOL      0.094629
     89 H37         5.5500    6.0700   -0.0660 hc        1 MOL      0.072256
     90 H38         4.3730    6.6890    1.0870 hc        1 MOL      0.072256
     91 H39         4.0230    6.4340   -2.6100 hn        1 MOL      0.371837
     92 H40         3.7640    8.1850   -2.6840 hn        1 MOL      0.371837
     93 N9          1.5230    3.9650    1.9990 n         1 MOL     -0.302893
     94 C30         0.2940    3.2550    2.4100 c3        1 MOL     -0.075384
     95 C31        -0.8380    3.6340    1.4260 c         1 MOL      0.378271
     96 O16        -1.2970    4.7760    1.3680 o         1 MOL     -0.558202
     97 C32        -0.0900    3.4320    3.8640 c3        1 MOL      0.408221
     98 C33        -1.3530    2.5500    4.2370 c3        1 MOL     -0.362522
     99 C34         1.0620    2.9850    4.7520 c3        1 MOL     -0.362522
    100 H41         1.6660    4.9330    2.2570 hn        1 MOL      0.242177
    101 H42         0.4730    2.1780    2.3530 h1        1 MOL      0.143096
    102 H43        -0.3170    4.4790    4.0450 hc        1 MOL     -0.063988
    103 H44        -1.6450    2.8570    5.2400 hc        1 MOL      0.073434
    104 H45        -2.1240    3.0770    3.6910 hc        1 MOL      0.073434
    105 H46        -1.3070    1.5730    3.7700 hc        1 MOL      0.073434
    106 H47         0.9860    1.8990    4.7510 hc        1 MOL      0.073434
    107 H48         2.0300    3.4090    4.4710 hc        1 MOL      0.073434
    108 H49         0.7750    3.3240    5.7480 hc        1 MOL      0.073434
    109 N10        -1.3480    2.5620    0.7830 n         1 MOL     -0.020832
    110 C35        -2.4880    2.5680   -0.1550 c3        1 MOL      0.139112
    111 C36        -3.8630    2.4270    0.5150 c         1 MOL      0.322788
    112 O17        -3.9030    1.8000    1.5890 o         1 MOL     -0.457489
    113 C37        -2.1500    1.6790   -1.3140 c3        1 MOL     -0.417055
    114 C38        -3.1500    1.7310   -2.4760 c         1 MOL      0.753890
    115 N11        -3.1590    2.8790   -3.1190 n         1 MOL     -0.838389
    116 O18        -4.0040    0.9020   -2.7290 o         1 MOL     -0.534396
    117 H50        -0.9200    1.6690    1.0080 hn        1 MOL      0.022115
    118 H51        -2.5250    3.6020   -0.5010 h1        1 MOL     -0.002381
    119 H52        -2.0880    0.6530   -0.9550 hc        1 MOL      0.130749
    120 H53        -1.1970    1.9570   -1.7580 hc        1 MOL      0.130749
    121 H54        -2.6480    3.6560   -2.7160 hn        1 MOL      0.375080
    122 H55        -3.7780    2.9890   -3.9100 hn        1 MOL      0.375080
    123 N12        -4.9600    3.0170    0.0470 n         1 MOL     -0.269407
    124 C39        -6.3450    2.8810    0.6900 c3        1 MOL      0.100257
    125 C40        -6.8110    1.4050    0.8650 c         1 MOL      0.348376
    126 O19        -7.5210    1.0850    1.8250 o         1 MOL     -0.550789
    127 C41        -7.4430    3.5840   -0.1520 c3        1 MOL     -0.246274
    128 C42        -7.3750    3.2010   -1.6580 ca        1 MOL     -0.010316
    129 C43        -6.4940    3.8980   -2.5100 ca        1 MOL     -0.030762
    130 C44        -8.1230    2.1670   -2.1210 ca        1 MOL     -0.030762
    131 C45        -6.5120    3.7240   -3.9010 ca        1 MOL     -0.423351
    132 C46        -8.0360    1.8430   -3.4930 ca        1 MOL     -0.423351
    133 C47        -7.2850    2.6540   -4.4150 ca        1 MOL      0.466082
    134 O20        -7.3090    2.2370   -5.7480 oh        1 MOL     -0.563816
    135 H56        -4.9230    3.3690   -0.8990 hn        1 MOL      0.144528
    136 H57        -6.3980    3.4000    1.6460 h1        1 MOL      0.086199
    137 H58        -7.2710    4.6450    0.0130 hc        1 MOL      0.093334
    138 H59        -8.4780    3.4190    0.1380 hc        1 MOL      0.093334
    139 H60        -5.8860    4.6850   -2.0900 ha        1 MOL      0.103251
    140 H61        -8.6080    1.4980   -1.4330 ha        1 MOL      0.103251
    141 H62        -5.8460    4.2270   -4.5810 ha        1 MOL      0.184796
    142 H63        -8.5950    1.0050   -3.8550 ha        1 MOL      0.184796
    143 H64        -8.0930    1.7030   -5.9320 ho        1 MOL      0.404179
    144 N13        -6.4000    0.5180   -0.0070 n         1 MOL     -0.026121
    145 C48        -6.5790   -0.9420    0.0110 c3        1 MOL     -0.006631
    146 C49        -5.8670   -1.5380    1.2900 c         1 MOL      0.414989
    147 O21        -6.4900   -2.3160    2.0350 o         1 MOL     -0.491070
    148 C50        -6.0670   -1.6290   -1.2580 c3        1 MOL      0.480672
    149 C51        -7.1160   -1.5660   -2.3760 c3        1 MOL     -0.388856
    150 C52        -8.2770   -2.6070   -2.1060 c         1 MOL      0.685521
    151 O22        -8.1580   -3.8230   -2.2950 o         1 MOL     -0.706406
    152 O23        -9.2320   -2.0690   -1.5050 o         1 MOL     -0.706406
    153 H65        -5.9860    0.9220   -0.8330 hn        1 MOL      0.241561
    154 H66        -7.6390   -1.1940    0.0650 h1        1 MOL      0.046254
    155 H67        -5.7490   -2.6580   -1.0900 hc        1 MOL     -0.119539
    156 H68        -5.1570   -1.1230   -1.5780 hc        1 MOL     -0.119539
    157 H69        -6.6770   -1.7990   -3.3490 hc        1 MOL      0.040574
    158 H70        -7.3930   -0.5140   -2.3710 hc        1 MOL      0.040574
    159 N14        -4.5800   -1.0910    1.4850 n         1 MOL     -0.317638
    160 C53        -3.6630   -1.4260    2.6080 c3        1 MOL     -0.098457
    161 C54        -4.1760   -0.8170    3.9290 c         1 MOL      0.422821
    162 O24        -3.9570   -1.5330    4.9580 o         1 MOL     -0.570897
    163 C55        -2.2170   -1.0030    2.3080 c3        1 MOL      0.036629
    164 C56        -1.6020   -1.8230    1.2580 c3        1 MOL      0.020754
    165 C57        -0.2980   -1.1830    0.7270 c         1 MOL      0.612342
    166 O25         0.4950   -1.8960    0.0500 o         1 MOL     -0.642950
    167 O26         0.1280   -0.0200    0.9390 o         1 MOL     -0.642950
    168 H71        -4.3080   -0.3780    0.8150 hn        1 MOL      0.081759
    169 H72        -3.7410   -2.4920    2.8300 h1        1 MOL      0.122530
    170 H73        -1.5740   -1.0850    3.1820 hc        1 MOL      0.052646
    171 H74        -2.1900    0.0410    1.9930 hc        1 MOL      0.052646
    172 H75        -2.1980   -1.9040    0.3580 hc        1 MOL     -0.007229
    173 H76        -1.4020   -2.8450    1.5950 hc        1 MOL     -0.007229
    174 N15        -4.8110    0.3240    3.9410 n         1 MOL     -0.053566
    175 C58        -5.0930    1.0290    5.1980 c3        1 MOL     -0.262137
    176 H77        -6.1580    0.9600    5.4210 h1        1 MOL      0.093817
    177 H78        -4.5230    0.5720    6.0060 h1        1 MOL      0.093817
    178 H79        -4.8090    2.0770    5.0990 h1        1 MOL      0.093817
    179 H80        -5.1030    0.7790    3.0920 hn        1 MOL      0.175716
    180 Ca1         2.5750   -0.2940    0.0570 Ca        1 MOL      1.688561
    181 O27         2.5140   -0.5140    2.7200 oh        1 MOL     -0.841152
    182 H81         1.6810   -0.8040    3.0800 ho        1 MOL      0.409442
    183 H82         2.9130    0.0020    3.4270 ho        1 MOL      0.409442
    184 O28         5.0130   -0.4620    1.1320 oh        1 MOL     -0.841152
    185 H83         5.2650   -0.0320    1.9490 ho        1 MOL      0.409442
    186 H84         5.2530   -1.3830    1.2630 ho        1 MOL      0.409442
    187 O29         1.2480    1.0130   -1.9390 oh        1 MOL     -0.841152
    188 H85         1.2680    0.3020   -2.5780 ho        1 MOL      0.409442
    189 H86         1.6910    1.7400   -2.3810 ho        1 MOL      0.409442
@<TRIPOS>BOND
     1    1    2 1   
     2    1    4 1   
     3    1    5 1   
     4    1    6 1   
     5    2    3 2   
     6    2    7 1   
     7    7    8 1   
     8    7   15 1   
     9    8    9 1   
    10    8   11 1   
    11    8   16 1   
    12    9   10 2   
    13    9   19 1   
    14   11   12 1   
    15   11   17 1   
    16   11   18 1   
    17   12   13 1   
    18   12   14 1   
    19   19   20 1   
    20   19   27 1   
    21   20   21 1   
    22   20   23 1   
    23   20   28 1   
    24   21   22 2   
    25   21   38 1   
    26   23   24 1   
    27   23   25 1   
    28   23   29 1   
    29   24   26 1   
    30   24   30 1   
    31   24   31 1   
    32   25   32 1   
    33   25   33 1   
    34   25   34 1   
    35   26   35 1   
    36   26   36 1   
    37   26   37 1   
    38   38   39 1   
    39   38   46 1   
    40   39   40 1   
    41   39   42 1   
    42   39   47 1   
    43   40   41 2   
    44   40   50 1   
    45   42   43 1   
    46   42   48 1   
    47   42   49 1   
    48   43   44 1   
    49   43   45 1   
    50   50   51 1   
    51   50   54 1   
    52   51   52 1   
    53   51   55 1   
    54   51   56 1   
    55   52   53 2   
    56   52   57 1   
    57   57   58 1   
    58   57   65 1   
    59   58   59 1   
    60   58   61 1   
    61   58   66 1   
    62   59   60 2   
    63   59   69 1   
    64   61   62 1   
    65   61   67 1   
    66   61   68 1   
    67   62   63 1   
    68   62   64 1   
    69   69   70 1   
    70   69   73 1   
    71   70   71 1   
    72   70   74 1   
    73   70   75 1   
    74   71   72 2   
    75   71   76 1   
    76   76   77 1   
    77   76   85 1   
    78   77   78 1   
    79   77   80 1   
    80   77   86 1   
    81   78   79 2   
    82   78   93 1   
    83   80   81 1   
    84   80   87 1   
    85   80   88 1   
    86   81   82 1   
    87   81   89 1   
    88   81   90 1   
    89   82   83 1   
    90   82   84 2   
    91   83   91 1   
    92   83   92 1   
    93   93   94 1   
    94   93  100 1   
    95   94   95 1   
    96   94   97 1   
    97   94  101 1   
    98   95   96 2   
    99   95  109 1   
   100   97   98 1   
   101   97   99 1   
   102   97  102 1   
   103   98  103 1   
   104   98  104 1   
   105   98  105 1   
   106   99  106 1   
   107   99  107 1   
   108   99  108 1   
   109  109  110 1   
   110  109  117 1   
   111  110  111 1   
   112  110  113 1   
   113  110  118 1   
   114  111  112 2   
   115  111  123 1   
   116  113  114 1   
   117  113  119 1   
   118  113  120 1   
   119  114  115 1   
   120  114  116 2   
   121  115  121 1   
   122  115  122 1   
   123  123  124 1   
   124  123  135 1   
   125  124  125 1   
   126  124  127 1   
   127  124  136 1   
   128  125  126 2   
   129  125  144 1   
   130  127  128 1   
   131  127  137 1   
   132  127  138 1   
   133  128  129 ar  
   134  128  130 ar  
   135  129  131 ar  
   136  129  139 1   
   137  130  132 ar  
   138  130  140 1   
   139  131  133 ar  
   140  131  141 1   
   141  132  133 ar  
   142  132  142 1   
   143  133  134 1   
   144  134  143 1   
   145  144  145 1   
   146  144  153 1   
   147  145  146 1   
   148  145  148 1   
   149  145  154 1   
   150  146  147 2   
   151  146  159 1   
   152  148  149 1   
   153  148  155 1   
   154  148  156 1   
   155  149  150 1   
   156  149  157 1   
   157  149  158 1   
   158  150  151 1   
   159  150  152 1   
   160  159  160 1   
   161  159  168 1   
   162  160  161 1   
   163  160  163 1   
   164  160  169 1   
   165  161  162 2   
   166  161  174 1   
   167  163  164 1   
   168  163  170 1   
   169  163  171 1   
   170  164  165 1   
   171  164  172 1   
   172  164  173 1   
   173  165  166 1   
   174  165  167 1   
   175  174  175 1   
   176  174  179 1   
   177  175  176 1   
   178  175  177 1   
   179  175  178 1   
   180  181  182 1   
   181  181  183 1   
   182  184  185 1   
   183  184  186 1   
   184  187  188 1   
   185  187  189 1   
@<TRIPOS>SUBSTRUCTURE
     1 MOL         1 TEMP              0 ****  ****    0 ROOT
