@<TRIPOS>MOLECULE
MOL
  189   185     1     0     0
SMALL
resp


@<TRIPOS>ATOM
      1 C1          0.7020    2.2110    5.5570 c3        1 MOL     -0.277744
      2 C2         -0.0410    2.1740    4.2270 c         1 MOL      0.690067
      3 O1          0.5530    2.7010    3.2800 o         1 MOL     -0.686249
      4 H1          1.7150    2.5800    5.3960 hc        1 MOL      0.071674
      5 H2          0.1790    2.8740    6.2460 hc        1 MOL      0.071674
      6 H3          0.7440    1.2070    5.9780 hc        1 MOL      0.071674
      7 N1         -1.2600    1.5950    4.0980 n         1 MOL     -0.557132
      8 C3         -1.9480    1.4320    2.8040 c3        1 MOL      0.153512
      9 C4         -2.4580    2.8220    2.2220 c         1 MOL      0.455684
     10 O2         -3.3110    3.4080    2.8080 o         1 MOL     -0.515628
     11 C5         -3.0060    0.3330    2.9480 c3        1 MOL     -0.327301
     12 C6         -3.7900    0.2000    1.6410 c         1 MOL      0.800331
     13 O3         -3.1440    0.2280    0.5740 o         1 MOL     -0.692501
     14 O4         -4.9970   -0.1590    1.7270 o         1 MOL     -0.692501
     15 H4         -1.6750    1.2590    4.9610 hn        1 MOL      0.318980
     16 H5         -1.2040    0.9810    2.1400 h1        1 MOL      0.042839
     17 H6         -3.6870    0.7200    3.7070 hc        1 MOL      0.079196
     18 H7         -2.5550   -0.5950    3.2860 hc        1 MOL      0.079196
     19 N2         -1.8340    3.3640    1.1350 n         1 MOL     -0.269677
     20 C7         -2.0790    4.7350    0.6860 c3        1 MOL      0.037575
     21 C8         -3.3710    4.8880   -0.0990 c         1 MOL      0.578273
     22 O5         -4.0300    5.8820    0.1210 o         1 MOL     -0.590913
     23 C9         -0.9400    5.4390    0.0310 c3        1 MOL     -0.053570
     24 C10         0.2410    5.7680    0.9070 c3        1 MOL      0.100791
     25 C11         0.0110    6.9290    1.9240 c3        1 MOL     -0.325136
     26 C12         1.2920    7.1270    2.7970 c3        1 MOL      0.125056
     27 N3          1.4380    6.0770    3.8510 n4        1 MOL     -0.380814
     28 H8         -1.0730    2.8270    0.7530 hn        1 MOL      0.272457
     29 H9         -2.3120    5.3430    1.5710 h1        1 MOL      0.020028
     30 H10        -1.4170    6.2660   -0.4930 hc        1 MOL      0.017001
     31 H11        -0.5550    4.7730   -0.7440 hc        1 MOL      0.017001
     32 H12         1.0800    6.1580    0.3230 hc        1 MOL      0.020426
     33 H13         0.6310    4.9090    1.4530 hc        1 MOL      0.020426
     34 H14        -0.8780    6.8260    2.5470 hc        1 MOL      0.125049
     35 H15        -0.2160    7.8040    1.3050 hc        1 MOL      0.125049
     36 H16         1.1430    8.0850    3.2820 hx        1 MOL      0.049463
     37 H17         2.2540    7.2050    2.3060 hx        1 MOL      0.049463
     38 H18         0.4970    5.9110    4.1980 hn        1 MOL      0.343859
     39 H19         1.7960    5.2520    3.4040 hn        1 MOL      0.343859
     40 H20         2.1080    6.4050    4.5270 hn        1 MOL      0.343859
     41 N4         -3.6980    3.8190   -0.8150 n         1 MOL     -0.372023
     42 C13        -4.7070    3.8650   -1.9050 c3        1 MOL     -0.025706
     43 C14        -5.8980    2.8860   -1.5860 c         1 MOL      0.374273
     44 O6         -6.7790    2.7460   -2.4670 o         1 MOL     -0.481701
     45 C15        -4.0000    3.5900   -3.2620 c3        1 MOL     -0.199381
     46 C16        -2.8730    2.5100   -3.1740 c         1 MOL      0.824723
     47 O7         -2.9250    1.5760   -2.3090 o         1 MOL     -0.739313
     48 O8         -1.9340    2.6620   -3.9080 o         1 MOL     -0.739313
     49 H21        -3.0250    3.0720   -0.7440 hn        1 MOL      0.217898
     50 H22        -5.0970    4.8870   -1.9470 h1        1 MOL      0.116646
     51 H23        -3.6010    4.5450   -3.5770 hc        1 MOL      0.055419
     52 H24        -4.7400    3.2180   -3.9770 hc        1 MOL      0.055419
     53 N5         -5.9590    2.3620   -0.3820 n         1 MOL     -0.183598
     54 C17        -7.1780    1.7500    0.0940 c3        1 MOL     -0.171687
     55 C18        -7.6600    0.5730   -0.7480 c         1 MOL      0.453122
     56 O9         -8.8620    0.4550   -1.0800 o         1 MOL     -0.543615
     57 H25        -5.2020    2.5660    0.2530 hn        1 MOL      0.241133
     58 H26        -8.0100    2.4490    0.1260 h1        1 MOL      0.090282
     59 H27        -6.8580    1.4470    1.0910 h1        1 MOL      0.090282
     60 N6         -6.6580   -0.2410   -1.0670 n         1 MOL     -0.109754
     61 C19        -6.9610   -1.5450   -1.6590 c3        1 MOL      0.001158
     62 C20        -6.9040   -2.7090   -0.6320 c         1 MOL      0.410638
     63 O10        -7.3230   -3.8220   -0.9710 o         1 MOL     -0.525693
     64 C21        -5.9560   -1.8010   -2.7980 c3        1 MOL     -0.199945
     65 C22        -4.4350   -1.7430   -2.4650 c         1 MOL      0.692079
     66 O11        -3.9500   -1.9250   -1.3360 o         1 MOL     -0.698806
     67 O12        -3.6030   -1.5470   -3.3670 o         1 MOL     -0.698806
     68 H28        -5.7750   -0.1120   -0.6090 hn        1 MOL      0.052460
     69 H29        -7.9900   -1.5670   -2.0150 h1        1 MOL      0.115720
     70 H30        -6.3010   -1.1990   -3.6360 hc        1 MOL      0.073727
     71 H31        -6.1480   -2.8270   -3.1180 hc        1 MOL      0.073727
     72 N7         -6.4590   -2.4790    0.6290 n         1 MOL     -0.353860
     73 C23        -6.3230   -3.5690    1.6460 c3        1 MOL     -0.024964
     74 C24        -5.0170   -4.3780    1.5640 c         1 MOL      0.533082
     75 O13        -5.0490   -5.4550    2.0860 o         1 MOL     -0.584558
     76 H32        -6.0180   -1.5840    0.8120 hn        1 MOL      0.289278
     77 H33        -7.0590   -4.3750    1.6190 h1        1 MOL      0.070168
     78 H34        -6.3880   -3.1690    2.6640 h1        1 MOL      0.070168
     79 N8         -4.0430   -3.9430    0.8200 n         1 MOL     -0.238030
     80 C25        -2.7210   -4.6450    0.6840 c3        1 MOL     -0.221231
     81 C26        -1.5660   -3.6750    0.8750 c         1 MOL      0.678528
     82 O14        -1.6450   -2.4970    0.4950 o         1 MOL     -0.647028
     83 C27        -2.6850   -5.4170   -0.6750 c3        1 MOL      0.498274
     84 C28        -3.5900   -6.6380   -0.7040 c3        1 MOL     -0.399307
     85 O15        -3.0790   -4.5600   -1.7390 oh        1 MOL     -0.639034
     86 H35        -4.2210   -3.1250    0.2570 hn        1 MOL      0.181287
     87 H36        -2.6450   -5.4300    1.4360 h1        1 MOL      0.087256
     88 H37        -1.6450   -5.7260   -0.7900 h1        1 MOL     -0.041929
     89 H38        -3.3890   -3.7310   -1.3580 ho        1 MOL      0.474387
     90 H39        -3.2770   -7.3290   -1.4830 hc        1 MOL      0.099308
     91 H40        -3.3310   -7.1610    0.2210 hc        1 MOL      0.099308
     92 H41        -4.6420   -6.3780   -0.6890 hc        1 MOL      0.099308
     93 N9         -0.4250   -4.1020    1.3840 n         1 MOL     -0.544525
     94 C29         0.7690   -3.2740    1.6410 c3        1 MOL     -0.013585
     95 C30         1.9240   -3.7670    0.7500 c         1 MOL      0.496459
     96 O16         2.1160   -5.0020    0.6040 o         1 MOL     -0.562665
     97 C31         1.1800   -3.3010    3.1450 c3        1 MOL      0.076367
     98 C32         0.1120   -2.5200    3.9620 c3        1 MOL      0.016302
     99 C33         2.5050   -2.6500    3.4490 c3        1 MOL     -0.367514
    100 C34         0.2380   -2.8350    5.4350 c3        1 MOL     -0.124578
    101 H42        -0.4080   -5.0730    1.6850 hn        1 MOL      0.309359
    102 H43         0.6370   -2.2170    1.4320 h1        1 MOL      0.123277
    103 H44         1.0310   -4.3050    3.5300 hc        1 MOL      0.036214
    104 H45        -0.8720   -2.6940    3.5420 hc        1 MOL      0.031225
    105 H46         0.2270   -1.4340    3.9740 hc        1 MOL      0.031225
    106 H47         2.4580   -1.5680    3.5390 hc        1 MOL      0.077151
    107 H48         2.7950   -2.9640    4.4380 hc        1 MOL      0.077151
    108 H49         3.2920   -2.9030    2.7420 hc        1 MOL      0.077151
    109 H50        -0.6130   -2.4690    6.0100 hc        1 MOL      0.031431
    110 H51         0.2860   -3.9160    5.5700 hc        1 MOL      0.031431
    111 H52         1.1320   -2.4330    5.9220 hc        1 MOL      0.031431
    112 N10         2.4980   -2.8290    0.0060 n         1 MOL     -0.128328
    113 C35         3.6160   -3.0050   -0.9400 c3        1 MOL     -0.140125
    114 C36         4.9850   -2.6980   -0.2740 c         1 MOL      0.526305
    115 O17         5.0180   -2.0190    0.7210 o         1 MOL     -0.485137
    116 C37         3.4280   -2.0140   -2.1690 c3        1 MOL      0.057099
    117 C38         2.2160   -2.2500   -2.9830 c3        1 MOL     -0.387063
    118 O18         3.2990   -0.6000   -1.9190 oh        1 MOL     -0.291436
    119 H53         2.1180   -1.8920    0.0650 hn        1 MOL      0.247561
    120 H54         3.5460   -4.0410   -1.2670 h1        1 MOL      0.092534
    121 H55         4.2910   -2.1380   -2.8240 h1        1 MOL      0.023987
    122 H56         2.8410   -0.2660   -2.6950 ho        1 MOL      0.298027
    123 H57         2.1610   -3.2840   -3.3440 hc        1 MOL      0.119296
    124 H58         1.3840   -1.8810   -2.3960 hc        1 MOL      0.119296
    125 H59         2.2950   -1.7080   -3.9240 hc        1 MOL      0.119296
    126 N11         6.0470   -3.2040   -0.9290 n         1 MOL     -0.373554
    127 C39         7.3770   -2.8050   -0.4490 c3        1 MOL     -0.025273
    128 C40         7.7250   -1.2960   -0.5360 c         1 MOL      0.367863
    129 O19         8.5000   -0.8100    0.3040 o         1 MOL     -0.489018
    130 C41         8.4970   -3.5190   -1.2290 c3        1 MOL      0.166116
    131 C42         8.6890   -5.0480   -0.9510 c3        1 MOL     -0.353554
    132 O20         8.1110   -3.5520   -2.5760 oh        1 MOL     -0.634159
    133 H60         6.0190   -3.6770   -1.8270 hn        1 MOL      0.305432
    134 H61         7.5920   -3.1120    0.5750 h1        1 MOL      0.128776
    135 H62         9.4630   -3.0170   -1.1490 h1        1 MOL      0.095554
    136 H63         8.8020   -4.0960   -2.9710 ho        1 MOL      0.422408
    137 H64         9.6240   -5.4560   -1.3390 hc        1 MOL      0.103579
    138 H65         8.6920   -5.1560    0.1330 hc        1 MOL      0.103579
    139 H66         7.8080   -5.6080   -1.2530 hc        1 MOL      0.103579
    140 N12         7.0710   -0.5270   -1.4520 n         1 MOL     -0.269723
    141 C43         7.0030    0.9690   -1.4660 c3        1 MOL     -0.050586
    142 C44         6.2760    1.3940   -0.2440 c         1 MOL      0.262809
    143 O21         6.7770    2.2720    0.4830 o         1 MOL     -0.500522
    144 C45         6.2310    1.4470   -2.6810 c3        1 MOL      0.024117
    145 C46         6.0170    2.9430   -2.5820 c3        1 MOL      0.118619
    146 C47         5.4490    3.4150   -3.9690 c3        1 MOL      0.041027
    147 C48         5.4570    4.9090   -4.2570 c3        1 MOL      0.049370
    148 N13         4.6230    5.3060   -5.4470 n4        1 MOL     -0.474746
    149 H67         6.5450   -0.9460   -2.2160 hn        1 MOL      0.192989
    150 H68         7.9910    1.4200   -1.4370 h1        1 MOL      0.120524
    151 H69         5.2730    0.9390   -2.7460 hc        1 MOL     -0.019828
    152 H70         6.9210    1.2960   -3.5060 hc        1 MOL     -0.019828
    153 H71         6.9180    3.5150   -2.3410 hc        1 MOL     -0.031215
    154 H72         5.2680    3.1260   -1.8240 hc        1 MOL     -0.031215
    155 H73         4.4100    3.1260   -4.1200 hc        1 MOL     -0.017363
    156 H74         6.0170    2.8810   -4.7410 hc        1 MOL     -0.017363
    157 H75         6.5030    5.1920   -4.4080 hx        1 MOL      0.082717
    158 H76         4.9890    5.4160   -3.4190 hx        1 MOL      0.082717
    159 H77         3.8620    4.6520   -5.4080 hn        1 MOL      0.360567
    160 H78         4.2740    6.2450   -5.3080 hn        1 MOL      0.360567
    161 H79         5.1950    5.1040   -6.2550 hn        1 MOL      0.360567
    162 N14         5.0360    0.8680    0.0610 n         1 MOL      0.595015
    163 C49         4.2640    1.4760    1.2070 c3        1 MOL     -0.807743
    164 C50         4.9420    1.2410    2.5370 c         1 MOL      0.651199
    165 O22         4.9870    2.2100    3.3260 o         1 MOL     -0.579930
    166 C51         2.8010    0.8930    1.2410 c3        1 MOL      0.344762
    167 C52         2.0760    1.5280    0.0840 c3        1 MOL      0.131711
    168 C53         0.7020    0.8010   -0.2070 c         1 MOL      0.431140
    169 O23        -0.2850    1.5350   -0.4430 o         1 MOL     -0.677231
    170 O24         0.6370   -0.4500   -0.3310 o         1 MOL     -0.677231
    171 H80         4.4750    0.3320   -0.5880 hn        1 MOL      0.109761
    172 H81         4.2700    2.5660    1.1280 h1        1 MOL      0.168008
    173 H82         2.4150    1.2460    2.2010 hc        1 MOL     -0.012397
    174 H83         2.7450   -0.1970    1.2370 hc        1 MOL     -0.012397
    175 H84         2.7920    1.4570   -0.7350 hc        1 MOL     -0.112364
    176 H85         1.9130    2.5850    0.2680 hc        1 MOL     -0.112364
    177 N15         5.6160    0.1400    2.7570 n         1 MOL     -0.307649
    178 C54         6.6700   -0.0490    3.8690 c3        1 MOL     -0.343568
    179 H86         7.6180    0.3810    3.5460 h1        1 MOL      0.146326
    180 H87         6.3350    0.4530    4.7770 h1        1 MOL      0.146326
    181 H88         6.8030   -1.1120    4.0670 h1        1 MOL      0.146326
    182 H89         5.7620   -0.3750    1.8950 hn        1 MOL      0.217549
    183 Ca1        -1.7210   -0.5450   -1.4150 Ca        1 MOL      1.800382
    184 O25        -0.8680   -2.9070   -2.8300 oh        1 MOL     -0.889310
    185 H90        -0.1020   -3.3860   -3.1400 ho        1 MOL      0.411942
    186 H91        -1.5630   -3.1710   -3.4290 ho        1 MOL      0.411942
    187 O26        -0.4560    0.4200   -3.5730 oh        1 MOL     -0.889310
    188 H92         0.2400    0.6340   -4.1910 ho        1 MOL      0.411942
    189 H93        -0.9790    1.2170   -3.5210 ho        1 MOL      0.411942
@<TRIPOS>BOND
     1    1    2 1   
     2    1    4 1   
     3    1    5 1   
     4    1    6 1   
     5    2    3 2   
     6    2    7 1   
     7    7    8 1   
     8    7   15 1   
     9    8    9 1   
    10    8   11 1   
    11    8   16 1   
    12    9   10 2   
    13    9   19 1   
    14   11   12 1   
    15   11   17 1   
    16   11   18 1   
    17   12   13 1   
    18   12   14 1   
    19   19   20 1   
    20   19   28 1   
    21   20   21 1   
    22   20   23 1   
    23   20   29 1   
    24   21   22 2   
    25   21   41 1   
    26   23   24 1   
    27   23   30 1   
    28   23   31 1   
    29   24   25 1   
    30   24   32 1   
    31   24   33 1   
    32   25   26 1   
    33   25   34 1   
    34   25   35 1   
    35   26   27 1   
    36   26   36 1   
    37   26   37 1   
    38   27   38 1   
    39   27   39 1   
    40   27   40 1   
    41   41   42 1   
    42   41   49 1   
    43   42   43 1   
    44   42   45 1   
    45   42   50 1   
    46   43   44 2   
    47   43   53 1   
    48   45   46 1   
    49   45   51 1   
    50   45   52 1   
    51   46   47 1   
    52   46   48 1   
    53   53   54 1   
    54   53   57 1   
    55   54   55 1   
    56   54   58 1   
    57   54   59 1   
    58   55   56 2   
    59   55   60 1   
    60   60   61 1   
    61   60   68 1   
    62   61   62 1   
    63   61   64 1   
    64   61   69 1   
    65   62   63 2   
    66   62   72 1   
    67   64   65 1   
    68   64   70 1   
    69   64   71 1   
    70   65   66 1   
    71   65   67 1   
    72   72   73 1   
    73   72   76 1   
    74   73   74 1   
    75   73   77 1   
    76   73   78 1   
    77   74   75 2   
    78   74   79 1   
    79   79   80 1   
    80   79   86 1   
    81   80   81 1   
    82   80   83 1   
    83   80   87 1   
    84   81   82 2   
    85   81   93 1   
    86   83   84 1   
    87   83   85 1   
    88   83   88 1   
    89   84   90 1   
    90   84   91 1   
    91   84   92 1   
    92   85   89 1   
    93   93   94 1   
    94   93  101 1   
    95   94   95 1   
    96   94   97 1   
    97   94  102 1   
    98   95   96 2   
    99   95  112 1   
   100   97   98 1   
   101   97   99 1   
   102   97  103 1   
   103   98  100 1   
   104   98  104 1   
   105   98  105 1   
   106   99  106 1   
   107   99  107 1   
   108   99  108 1   
   109  100  109 1   
   110  100  110 1   
   111  100  111 1   
   112  112  113 1   
   113  112  119 1   
   114  113  114 1   
   115  113  116 1   
   116  113  120 1   
   117  114  115 2   
   118  114  126 1   
   119  116  117 1   
   120  116  118 1   
   121  116  121 1   
   122  117  123 1   
   123  117  124 1   
   124  117  125 1   
   125  118  122 1   
   126  126  127 1   
   127  126  133 1   
   128  127  128 1   
   129  127  130 1   
   130  127  134 1   
   131  128  129 2   
   132  128  140 1   
   133  130  131 1   
   134  130  132 1   
   135  130  135 1   
   136  131  137 1   
   137  131  138 1   
   138  131  139 1   
   139  132  136 1   
   140  140  141 1   
   141  140  149 1   
   142  141  142 1   
   143  141  144 1   
   144  141  150 1   
   145  142  143 2   
   146  142  162 1   
   147  144  145 1   
   148  144  151 1   
   149  144  152 1   
   150  145  146 1   
   151  145  153 1   
   152  145  154 1   
   153  146  147 1   
   154  146  155 1   
   155  146  156 1   
   156  147  148 1   
   157  147  157 1   
   158  147  158 1   
   159  148  159 1   
   160  148  160 1   
   161  148  161 1   
   162  162  163 1   
   163  162  171 1   
   164  163  164 1   
   165  163  166 1   
   166  163  172 1   
   167  164  165 2   
   168  164  177 1   
   169  166  167 1   
   170  166  173 1   
   171  166  174 1   
   172  167  168 1   
   173  167  175 1   
   174  167  176 1   
   175  168  169 1   
   176  168  170 1   
   177  177  178 1   
   178  177  182 1   
   179  178  179 1   
   180  178  180 1   
   181  178  181 1   
   182  184  185 1   
   183  184  186 1   
   184  187  188 1   
   185  187  189 1   
@<TRIPOS>SUBSTRUCTURE
     1 MOL         1 TEMP              0 ****  ****    0 ROOT
