@<TRIPOS>MOLECULE
MOL
  175   173     1     0     0
SMALL
resp


@<TRIPOS>ATOM
      1 C1         -0.1810    4.2420    5.7050 c3        1 MOL     -0.404830
      2 C2         -0.8100    4.3490    4.2900 c         1 MOL      0.736878
      3 O1         -0.2340    5.0620    3.4600 o         1 MOL     -0.564299
      4 H1         -0.7700    3.5540    6.3120 hc        1 MOL      0.097081
      5 H2          0.8400    3.8700    5.6230 hc        1 MOL      0.097081
      6 H3         -0.1740    5.2250    6.1750 hc        1 MOL      0.097081
      7 N1         -1.9180    3.6540    4.0080 n         1 MOL     -0.684790
      8 C3         -2.3510    3.3520    2.5940 c3        1 MOL      0.176679
      9 C4         -2.4630    4.6420    1.6330 c         1 MOL      0.740988
     10 O2         -2.9300    5.7130    2.0810 o         1 MOL     -0.593322
     11 C5         -3.7280    2.6360    2.8110 c3        1 MOL     -0.336898
     12 C6         -4.3950    2.3800    1.4760 c         1 MOL      0.724864
     13 O3         -3.6930    1.7820    0.6540 o         1 MOL     -0.606913
     14 O4         -5.4820    2.8680    1.2450 o         1 MOL     -0.606913
     15 H4         -2.5420    3.3800    4.7510 hn        1 MOL      0.344935
     16 H5         -1.6690    2.6490    2.1240 h1        1 MOL     -0.008542
     17 H6         -4.3420    3.3000    3.4170 hc        1 MOL      0.051089
     18 H7         -3.6680    1.6800    3.3160 hc        1 MOL      0.051089
     19 N2         -2.2600    4.4300    0.3100 n         1 MOL     -0.839511
     20 C7         -2.3830    5.4370   -0.7170 c3        1 MOL      0.581447
     21 C8         -3.5020    5.0100   -1.7480 c         1 MOL      0.277127
     22 O5         -3.8470    5.7850   -2.6170 o         1 MOL     -0.552355
     23 C9         -0.9720    5.6650   -1.3190 c3        1 MOL     -0.475693
     24 H8         -1.9520    3.5320   -0.0250 hn        1 MOL      0.472311
     25 H9         -2.6680    6.4130   -0.3300 h1        1 MOL     -0.011513
     26 H10        -0.6720    4.8650   -2.0030 hc        1 MOL      0.112789
     27 H11        -1.0360    6.7000   -1.6660 hc        1 MOL      0.112789
     28 H12        -0.3860    5.7760   -0.4030 hc        1 MOL      0.112789
     29 N3         -4.0850    3.7840   -1.7270 n         1 MOL     -0.202102
     30 C10        -4.7590    3.2500   -2.9230 c3        1 MOL      0.133901
     31 C11        -5.9380    2.3020   -2.6180 c         1 MOL      0.319709
     32 O6         -6.8110    2.0170   -3.4570 o         1 MOL     -0.571000
     33 C12        -3.7210    2.6020   -3.9100 c3        1 MOL     -0.097561
     34 C13        -2.7970    1.5930   -3.2320 c         1 MOL      0.664662
     35 O7         -3.0960    0.8800   -2.2410 o         1 MOL     -0.693281
     36 O8         -1.6290    1.5550   -3.6450 o         1 MOL     -0.693281
     37 H13        -3.8380    3.1270   -1.0070 hn        1 MOL      0.202006
     38 H14        -5.2860    4.0010   -3.5170 h1        1 MOL      0.046374
     39 H15        -3.2090    3.4340   -4.3960 hc        1 MOL      0.019696
     40 H16        -4.2390    2.0730   -4.7080 hc        1 MOL      0.019696
     41 N4         -5.9800    1.7830   -1.3580 n         1 MOL      0.258946
     42 C14        -7.0970    1.0980   -0.7860 c3        1 MOL     -0.421960
     43 C15        -7.0670   -0.3770   -0.9580 c         1 MOL      0.594448
     44 O9         -7.9990   -1.0280   -0.4690 o         1 MOL     -0.629764
     45 H17        -5.3620    2.1380   -0.6300 hn        1 MOL     -0.212435
     46 H18        -7.9490    1.6230   -1.2380 h1        1 MOL      0.158158
     47 H19        -6.9670    1.1430    0.2920 h1        1 MOL      0.158158
     48 N5         -6.0880   -0.9270   -1.6510 n         1 MOL     -0.262987
     49 C16        -6.0920   -2.3270   -2.0930 c3        1 MOL      0.042994
     50 C17        -6.1060   -3.3960   -1.0260 c         1 MOL      0.417364
     51 O10        -6.4030   -4.5470   -1.3850 o         1 MOL     -0.542912
     52 C18        -5.0070   -2.6520   -3.1710 c3        1 MOL     -0.071717
     53 C19        -3.5890   -2.4530   -2.6080 c         1 MOL      0.547691
     54 N6         -2.6380   -2.2620   -3.4140 n         1 MOL     -0.511329
     55 O11        -3.3380   -2.3380   -1.4050 o         1 MOL     -0.648045
     56 H20        -5.3690   -0.2930   -1.9760 hn        1 MOL      0.099838
     57 H21        -7.0420   -2.3600   -2.6200 h1        1 MOL      0.081804
     58 H22        -5.1680   -2.1430   -4.1210 hc        1 MOL      0.038539
     59 H23        -5.0710   -3.6860   -3.5040 hc        1 MOL      0.038539
     60 H24        -2.8570   -2.2530   -4.4020 hn        1 MOL      0.296911
     61 H25        -1.6890   -2.0960   -3.1130 hn        1 MOL      0.296911
     62 N7         -6.0450   -3.0520    0.2860 n         1 MOL     -0.150630
     63 C20        -6.0170   -3.8820    1.4630 c3        1 MOL     -0.295323
     64 C21        -4.6640   -4.5960    1.7080 c         1 MOL      0.492542
     65 O12        -4.6080   -5.3460    2.6870 o         1 MOL     -0.593480
     66 H26        -5.6760   -2.1440    0.5340 hn        1 MOL      0.231275
     67 H27        -6.7650   -4.6710    1.3820 h1        1 MOL      0.132732
     68 H28        -6.3340   -3.2690    2.3030 h1        1 MOL      0.132732
     69 N8         -3.6160   -4.2430    1.0440 n         1 MOL     -0.124982
     70 C22        -2.2250   -4.6030    1.3460 c3        1 MOL     -0.097004
     71 C23        -1.2990   -3.4260    1.6200 c         1 MOL      0.455746
     72 O13        -1.4870   -2.4410    0.9190 o         1 MOL     -0.425027
     73 C24        -1.6460   -5.5320    0.2790 c3        1 MOL      0.362079
     74 C25        -2.4140   -6.8170    0.0240 c3        1 MOL     -0.278059
     75 O14        -1.7100   -4.9020   -0.9990 oh        1 MOL     -0.574333
     76 H29        -3.8380   -3.6830    0.2320 hn        1 MOL      0.202921
     77 H30        -2.3530   -5.3300    2.1500 h1        1 MOL      0.054629
     78 H31        -0.6240   -5.8040    0.5480 h1        1 MOL     -0.008847
     79 H32        -1.5080   -3.9780   -0.8650 ho        1 MOL      0.350831
     80 H33        -2.0750   -7.4730   -0.7780 hc        1 MOL      0.070268
     81 H34        -2.4340   -7.4530    0.9090 hc        1 MOL      0.070268
     82 H35        -3.4430   -6.5450   -0.2000 hc        1 MOL      0.070268
     83 N9         -0.2530   -3.5430    2.4430 n         1 MOL     -0.411592
     84 C26         0.9770   -2.6880    2.3440 c3        1 MOL     -0.069527
     85 C27         1.8360   -3.0090    1.1060 c         1 MOL      0.530650
     86 O15         2.3800   -4.0750    0.8680 o         1 MOL     -0.578063
     87 C28         1.7240   -2.6520    3.6900 c3        1 MOL      0.050091
     88 C29         0.8290   -2.0950    4.8640 c3        1 MOL     -0.004537
     89 C30         3.0580   -1.9030    3.6320 c3        1 MOL     -0.126066
     90 C31         1.2520   -2.5030    6.3160 c3        1 MOL     -0.187375
     91 H36        -0.1300   -4.4210    2.9290 hn        1 MOL      0.266617
     92 H37         0.6280   -1.6580    2.2460 h1        1 MOL      0.092340
     93 H38         2.0530   -3.6680    3.9250 hc        1 MOL      0.034220
     94 H39        -0.2230   -2.3600    4.7500 hc        1 MOL      0.014235
     95 H40         0.8090   -1.0060    4.7590 hc        1 MOL      0.014235
     96 H41         3.6650   -2.0470    4.5220 hc        1 MOL      0.022226
     97 H42         3.6370   -2.2250    2.7610 hc        1 MOL      0.022226
     98 H43         2.8600   -0.8370    3.4650 hc        1 MOL      0.022226
     99 H44         0.6850   -2.0090    7.1020 hc        1 MOL      0.048139
    100 H45         1.3790   -3.5830    6.4530 hc        1 MOL      0.048139
    101 H46         2.2890   -2.2580    6.5300 hc        1 MOL      0.048139
    102 N10         1.8790   -2.0290    0.1900 n         1 MOL     -0.146639
    103 C32         2.7130   -2.0600   -1.0350 c3        1 MOL      0.087700
    104 C33         4.0840   -1.4260   -0.8240 c         1 MOL      0.297796
    105 O16         4.2490   -0.5740    0.0820 o         1 MOL     -0.217708
    106 C34         2.0470   -1.2650   -2.1720 c3        1 MOL     -0.349762
    107 C35         0.6280   -1.6160   -2.4630 c         1 MOL      0.710340
    108 O17        -0.2490   -1.2420   -1.5980 o         1 MOL     -0.660495
    109 O18         0.2710   -2.3580   -3.4270 o         1 MOL     -0.660495
    110 H47         1.2330   -1.2600    0.2900 hn        1 MOL      0.090700
    111 H48         2.8690   -3.0900   -1.3370 h1        1 MOL      0.069521
    112 H49         2.5290   -1.3130   -3.1480 hc        1 MOL      0.113603
    113 H50         2.0100   -0.2140   -1.9020 hc        1 MOL      0.113603
    114 N11         5.0660   -1.7410   -1.6520 n         1 MOL     -0.488215
    115 C36         6.5040   -1.3510   -1.4050 c3        1 MOL      0.140689
    116 C37         6.7520    0.1680   -1.0920 c         1 MOL      0.385099
    117 O19         7.5850    0.4660   -0.1940 o         1 MOL     -0.486627
    118 C38         7.3970   -1.8680   -2.5260 c3        1 MOL     -0.114508
    119 C39         8.8280   -1.9000   -2.1440 ca        1 MOL      0.111292
    120 C40         9.3560   -2.7820   -1.1850 ca        1 MOL     -0.227929
    121 C41         9.6980   -0.9410   -2.7720 ca        1 MOL     -0.227929
    122 C42        10.6780   -2.6000   -0.6730 ca        1 MOL     -0.054204
    123 C43        11.0140   -0.7600   -2.2510 ca        1 MOL     -0.054204
    124 C44        11.4830   -1.5810   -1.2040 ca        1 MOL     -0.158583
    125 H51         4.8610   -2.3980   -2.3890 hn        1 MOL      0.315780
    126 H52         6.7180   -1.8000   -0.4340 h1        1 MOL      0.087519
    127 H53         7.2430   -1.3950   -3.5000 hc        1 MOL      0.061627
    128 H54         7.0880   -2.8860   -2.7780 hc        1 MOL      0.061627
    129 H55         8.6730   -3.5180   -0.7930 ha        1 MOL      0.129372
    130 H56         9.3550   -0.3140   -3.5810 ha        1 MOL      0.129372
    131 H57        11.0640   -3.1840    0.1490 ha        1 MOL      0.103754
    132 H58        11.7070   -0.0050   -2.5960 ha        1 MOL      0.103754
    133 H59        12.4640   -1.4370   -0.7790 ha        1 MOL      0.110036
    134 N12         6.1980    1.0750   -1.9170 n         1 MOL     -0.116402
    135 C45         6.3550    2.5670   -1.6120 c3        1 MOL     -0.002630
    136 C46         5.4620    3.0470   -0.3690 c         1 MOL      0.345747
    137 O20         5.6090    4.1480    0.1230 o         1 MOL     -0.499195
    138 C47         5.7710    3.4070   -2.7200 c3        1 MOL     -0.077083
    139 C48         4.7240    2.4400   -3.2140 c3        1 MOL      0.076373
    140 C49         5.3000    1.0260   -3.0620 c3        1 MOL     -0.098835
    141 H60         7.4010    2.8080   -1.4300 h1        1 MOL      0.083925
    142 H61         5.4320    4.4080   -2.4590 hc        1 MOL      0.046124
    143 H62         6.5020    3.4950   -3.5290 hc        1 MOL      0.046124
    144 H63         3.8130    2.5250   -2.6120 hc        1 MOL      0.019915
    145 H64         4.4040    2.6950   -4.2250 hc        1 MOL      0.019915
    146 H65         4.5820    0.2080   -3.0740 h1        1 MOL      0.039284
    147 H66         5.9030    0.9980   -3.9700 h1        1 MOL      0.039284
    148 N13         4.5940    2.1700    0.1680 n         1 MOL     -0.221872
    149 C50         3.9030    2.4100    1.5260 c3        1 MOL     -0.074878
    150 C51         4.7200    1.8440    2.6540 c         1 MOL      0.498601
    151 O21         4.7680    2.3560    3.7730 o         1 MOL     -0.564423
    152 C52         2.4820    1.9430    1.6250 c3        1 MOL      0.242780
    153 C53         1.5890    2.2870    0.4260 c3        1 MOL     -0.181403
    154 C54         0.1900    1.6930    0.4260 c         1 MOL      0.676147
    155 O22        -0.7000    2.1180   -0.2930 o         1 MOL     -0.718765
    156 O23        -0.0570    0.6270    1.0630 o         1 MOL     -0.718765
    157 H67         4.5180    1.2640   -0.2710 hn        1 MOL      0.152844
    158 H68         3.7630    3.4690    1.7300 h1        1 MOL      0.085814
    159 H69         2.1030    2.3710    2.5470 hc        1 MOL     -0.038575
    160 H70         2.6330    0.8670    1.6800 hc        1 MOL     -0.038575
    161 H71         2.0350    1.9660   -0.5080 hc        1 MOL      0.070900
    162 H72         1.4820    3.3680    0.5070 hc        1 MOL      0.070900
    163 N14         5.4490    0.7520    2.3270 n         1 MOL     -0.126763
    164 C55         6.3060    0.1000    3.2600 c3        1 MOL     -0.185070
    165 H73         5.7590   -0.7050    3.7520 h1        1 MOL      0.074509
    166 H74         7.1670   -0.3140    2.7360 h1        1 MOL      0.074509
    167 H75         6.6450    0.8180    4.0070 h1        1 MOL      0.074509
    168 H76         5.3790    0.3420    1.4180 hn        1 MOL      0.077474
    169 Ca1        -2.1810   -0.2250   -0.1770 Ca        1 MOL      1.634606
    170 O24        -1.8580   -0.0860    2.7520 oh        1 MOL     -0.868702
    171 H77        -1.1020    0.3940    2.3990 ho        1 MOL      0.420033
    172 H78        -2.0860    0.3890    3.5540 ho        1 MOL      0.420033
    173 O25        -4.0690   -1.2730    1.5830 oh        1 MOL     -0.868702
    174 H79        -3.2830   -1.1450    2.1100 ho        1 MOL      0.420033
    175 H80        -4.7860   -1.0000    2.1530 ho        1 MOL      0.420033
@<TRIPOS>BOND
     1    1    2 1   
     2    1    4 1   
     3    1    5 1   
     4    1    6 1   
     5    2    3 2   
     6    2    7 1   
     7    7    8 1   
     8    7   15 1   
     9    8    9 1   
    10    8   11 1   
    11    8   16 1   
    12    9   10 2   
    13    9   19 1   
    14   11   12 1   
    15   11   17 1   
    16   11   18 1   
    17   12   13 1   
    18   12   14 1   
    19   19   20 1   
    20   19   24 1   
    21   20   21 1   
    22   20   23 1   
    23   20   25 1   
    24   21   22 2   
    25   21   29 1   
    26   23   26 1   
    27   23   27 1   
    28   23   28 1   
    29   29   30 1   
    30   29   37 1   
    31   30   31 1   
    32   30   33 1   
    33   30   38 1   
    34   31   32 2   
    35   31   41 1   
    36   33   34 1   
    37   33   39 1   
    38   33   40 1   
    39   34   35 1   
    40   34   36 1   
    41   41   42 1   
    42   41   45 1   
    43   42   43 1   
    44   42   46 1   
    45   42   47 1   
    46   43   44 2   
    47   43   48 1   
    48   48   49 1   
    49   48   56 1   
    50   49   50 1   
    51   49   52 1   
    52   49   57 1   
    53   50   51 2   
    54   50   62 1   
    55   52   53 1   
    56   52   58 1   
    57   52   59 1   
    58   53   54 1   
    59   53   55 2   
    60   54   60 1   
    61   54   61 1   
    62   62   63 1   
    63   62   66 1   
    64   63   64 1   
    65   63   67 1   
    66   63   68 1   
    67   64   65 2   
    68   64   69 1   
    69   69   70 1   
    70   69   76 1   
    71   70   71 1   
    72   70   73 1   
    73   70   77 1   
    74   71   72 2   
    75   71   83 1   
    76   73   74 1   
    77   73   75 1   
    78   73   78 1   
    79   74   80 1   
    80   74   81 1   
    81   74   82 1   
    82   75   79 1   
    83   83   84 1   
    84   83   91 1   
    85   84   85 1   
    86   84   87 1   
    87   84   92 1   
    88   85   86 2   
    89   85  102 1   
    90   87   88 1   
    91   87   89 1   
    92   87   93 1   
    93   88   90 1   
    94   88   94 1   
    95   88   95 1   
    96   89   96 1   
    97   89   97 1   
    98   89   98 1   
    99   90   99 1   
   100   90  100 1   
   101   90  101 1   
   102  102  103 1   
   103  102  110 1   
   104  103  104 1   
   105  103  106 1   
   106  103  111 1   
   107  104  105 2   
   108  104  114 1   
   109  106  107 1   
   110  106  112 1   
   111  106  113 1   
   112  107  108 1   
   113  107  109 1   
   114  114  115 1   
   115  114  125 1   
   116  115  116 1   
   117  115  118 1   
   118  115  126 1   
   119  116  117 2   
   120  116  134 1   
   121  118  119 1   
   122  118  127 1   
   123  118  128 1   
   124  119  120 ar  
   125  119  121 ar  
   126  120  122 ar  
   127  120  129 1   
   128  121  123 ar  
   129  121  130 1   
   130  122  124 ar  
   131  122  131 1   
   132  123  124 ar  
   133  123  132 1   
   134  124  133 1   
   135  134  135 1   
   136  134  140 1   
   137  135  136 1   
   138  135  138 1   
   139  135  141 1   
   140  136  137 2   
   141  136  148 1   
   142  138  139 1   
   143  138  142 1   
   144  138  143 1   
   145  139  140 1   
   146  139  144 1   
   147  139  145 1   
   148  140  146 1   
   149  140  147 1   
   150  148  149 1   
   151  148  157 1   
   152  149  150 1   
   153  149  152 1   
   154  149  158 1   
   155  150  151 2   
   156  150  163 1   
   157  152  153 1   
   158  152  159 1   
   159  152  160 1   
   160  153  154 1   
   161  153  161 1   
   162  153  162 1   
   163  154  155 1   
   164  154  156 1   
   165  163  164 1   
   166  163  168 1   
   167  164  165 1   
   168  164  166 1   
   169  164  167 1   
   170  170  171 1   
   171  170  172 1   
   172  173  174 1   
   173  173  175 1   
@<TRIPOS>SUBSTRUCTURE
     1 MOL         1 TEMP              0 ****  ****    0 ROOT
