@<TRIPOS>MOLECULE
MOL
  189   185     1     0     0
SMALL
resp


@<TRIPOS>ATOM
      1 C1         -1.3330    1.2050    6.3820 c3        1 MOL     -0.351809
      2 C2         -1.3210    1.1990    4.8290 c         1 MOL      0.666874
      3 O1         -0.4010    1.6260    4.1110 o         1 MOL     -0.623771
      4 H1         -0.8560    2.1150    6.7460 hc        1 MOL      0.091097
      5 H2         -2.3630    1.1690    6.7390 hc        1 MOL      0.091097
      6 H3         -0.7880    0.3370    6.7540 hc        1 MOL      0.091097
      7 N1         -2.4710    0.7260    4.3520 n         1 MOL     -0.428187
      8 C3         -2.9570    0.8460    2.9790 c3        1 MOL     -0.005137
      9 C4         -3.3160    2.3410    2.8330 c         1 MOL      0.493953
     10 O2         -4.3900    2.8080    3.1420 o         1 MOL     -0.528168
     11 C5         -4.1400   -0.0140    2.6670 c3        1 MOL     -0.129380
     12 C6         -4.5150    0.1360    1.2060 c         1 MOL      0.727033
     13 O3         -3.6530    0.4640    0.3780 o         1 MOL     -0.634018
     14 O4         -5.7310   -0.0820    0.9150 o         1 MOL     -0.634018
     15 H4         -3.1330    0.2060    4.9230 hn        1 MOL      0.285353
     16 H5         -2.1440    0.5860    2.2980 h1        1 MOL      0.116604
     17 H6         -5.0260    0.2470    3.2590 hc        1 MOL      0.027500
     18 H7         -3.8520   -1.0610    2.7620 hc        1 MOL      0.027500
     19 N2         -2.3610    3.1480    2.3340 n         1 MOL     -0.268417
     20 C7         -2.5750    4.5740    2.0000 c3        1 MOL     -0.245395
     21 C8         -3.5320    4.8220    0.7740 c         1 MOL      0.559061
     22 O5         -3.8780    5.9620    0.6280 o         1 MOL     -0.525869
     23 C9         -1.2120    5.2430    1.8170 c3        1 MOL      0.018671
     24 C10        -0.3470    4.7030    0.5710 c3        1 MOL     -0.034912
     25 C11         0.5360    5.7840   -0.0160 c3        1 MOL     -0.073596
     26 C12         1.5040    5.1020   -1.0330 c3        1 MOL      0.038102
     27 N3          0.8430    4.5150   -2.1850 n4        1 MOL     -0.246905
     28 H8         -1.5420    2.6760    1.9820 hn        1 MOL      0.316309
     29 H9         -3.0870    4.9890    2.8620 h1        1 MOL      0.165375
     30 H10        -0.6770    5.2080    2.7680 hc        1 MOL      0.031745
     31 H11        -1.3320    6.3110    1.6500 hc        1 MOL      0.031745
     32 H12        -1.0700    4.4220   -0.1950 hc        1 MOL      0.058962
     33 H13         0.2950    3.9240    0.9780 hc        1 MOL      0.058962
     34 H14         0.9570    6.3510    0.8100 hc        1 MOL      0.059316
     35 H15        -0.0930    6.5530   -0.4620 hc        1 MOL      0.059316
     36 H16         2.0420    4.2940   -0.5270 hx        1 MOL      0.027857
     37 H17         2.1550    5.8420   -1.5060 hx        1 MOL      0.027857
     38 H18         0.5990    5.2160   -2.8570 hn        1 MOL      0.289375
     39 H19         1.3410    3.7580   -2.6410 hn        1 MOL      0.289375
     40 H20        -0.0090    4.0550   -1.8960 hn        1 MOL      0.289375
     41 N4         -3.8850    3.7850   -0.1060 n         1 MOL     -0.024790
     42 C13        -4.6930    3.9970   -1.2860 c3        1 MOL     -0.165968
     43 C14        -6.1420    3.5370   -1.1580 c         1 MOL      0.601837
     44 O6         -7.0600    4.2610   -1.5900 o         1 MOL     -0.555767
     45 C15        -4.0060    3.3250   -2.5660 c3        1 MOL      0.051499
     46 C16        -2.4560    3.3720   -2.5000 c         1 MOL      0.706766
     47 O7         -1.9320    2.3530   -1.9600 o         1 MOL     -0.727203
     48 O8         -1.8060    4.2760   -3.0660 o         1 MOL     -0.727203
     49 H21        -3.3550    2.9420    0.0510 hn        1 MOL     -0.204655
     50 H22        -4.7150    5.0790   -1.4810 h1        1 MOL      0.081659
     51 H23        -4.4480    3.6100   -3.5190 hc        1 MOL     -0.000113
     52 H24        -4.2360    2.2620   -2.5610 hc        1 MOL     -0.000113
     53 N5         -6.4600    2.3640   -0.5960 n         1 MOL     -0.417335
     54 C17        -7.6780    1.6290   -0.8850 c3        1 MOL     -0.022046
     55 C18        -7.6160    0.4170   -1.8560 c         1 MOL      0.423626
     56 O9         -8.6620    0.1030   -2.5220 o         1 MOL     -0.552394
     57 H25        -5.7390    1.8110   -0.1480 hn        1 MOL      0.267976
     58 H26        -8.5380    2.2260   -1.2050 h1        1 MOL      0.085394
     59 H27        -7.9430    1.1510    0.0550 h1        1 MOL      0.085394
     60 N6         -6.5000   -0.3760   -1.8190 n         1 MOL     -0.159165
     61 C19        -6.4410   -1.6070   -2.5610 c3        1 MOL     -0.020667
     62 C20        -6.4130   -2.8540   -1.6360 c         1 MOL      0.470123
     63 O10        -6.3250   -4.0020   -2.0140 o         1 MOL     -0.529292
     64 C21        -5.1870   -1.6790   -3.5230 c3        1 MOL     -0.223470
     65 C22        -3.7940   -1.3670   -2.8760 c         1 MOL      0.619704
     66 O11        -3.1040   -0.3720   -3.2110 o         1 MOL     -0.683224
     67 O12        -3.4080   -1.9510   -1.8460 o         1 MOL     -0.683224
     68 H28        -5.7510   -0.1170   -1.1900 hn        1 MOL      0.163065
     69 H29        -7.3790   -1.6530   -3.1160 h1        1 MOL      0.115993
     70 H30        -5.3130   -0.9400   -4.3140 hc        1 MOL      0.077617
     71 H31        -5.1410   -2.7010   -3.8660 hc        1 MOL      0.077617
     72 N7         -6.3790   -2.5970   -0.3220 n         1 MOL     -0.316820
     73 C23        -6.2620   -3.6610    0.7690 c3        1 MOL      0.005363
     74 C24        -4.9560   -4.4050    0.7840 c         1 MOL      0.411827
     75 O13        -4.8890   -5.6080    1.1400 o         1 MOL     -0.551026
     76 H32        -6.3140   -1.6230   -0.0420 hn        1 MOL      0.184221
     77 H33        -7.0790   -4.3680    0.6830 h1        1 MOL      0.072224
     78 H34        -6.3320   -3.2930    1.7930 h1        1 MOL      0.072224
     79 N8         -3.8750   -3.8130    0.2330 n         1 MOL     -0.070716
     80 C25        -2.5220   -4.3580    0.1050 c3        1 MOL     -0.311079
     81 C26        -1.4150   -3.3970    0.4850 c         1 MOL      0.521806
     82 O14        -1.5130   -2.1660    0.3280 o         1 MOL     -0.744015
     83 C27        -2.3310   -5.1730   -1.1980 c3        1 MOL      0.497791
     84 C28        -3.1760   -6.3970   -1.1910 c3        1 MOL     -0.513583
     85 O15        -2.7400   -4.4310   -2.3240 oh        1 MOL     -0.652101
     86 H35        -4.0640   -2.8930   -0.1490 hn        1 MOL      0.192243
     87 H36        -2.3900   -5.1770    0.8180 h1        1 MOL      0.124177
     88 H37        -1.2810   -5.4080   -1.3680 h1        1 MOL     -0.030366
     89 H38        -3.1770   -3.6340   -2.0170 ho        1 MOL      0.420030
     90 H39        -2.9120   -6.9920   -2.0560 hc        1 MOL      0.139937
     91 H40        -3.0390   -6.9260   -0.2400 hc        1 MOL      0.139937
     92 H41        -4.2240   -6.1100   -1.2770 hc        1 MOL      0.139937
     93 N9         -0.3460   -3.9470    0.9630 n         1 MOL     -0.283617
     94 C29         0.8440   -3.2200    1.3280 c3        1 MOL      0.088162
     95 C30         1.9620   -3.5350    0.3260 c         1 MOL      0.345135
     96 O16         2.3870   -4.6720    0.1990 o         1 MOL     -0.525104
     97 C31         1.2550   -3.3840    2.8270 c3        1 MOL      0.014146
     98 C32         0.4290   -2.4650    3.8220 c3        1 MOL      0.019862
     99 C33         2.7460   -3.0940    3.0840 c3        1 MOL     -0.263700
    100 C34        -1.0590   -2.4830    3.6560 c3        1 MOL     -0.118800
    101 H42        -0.4520   -4.9300    1.1580 hn        1 MOL      0.237435
    102 H43         0.6680   -2.1570    1.1710 h1        1 MOL      0.192814
    103 H44         1.0310   -4.4080    3.1140 hc        1 MOL      0.029439
    104 H45         0.7140   -1.4180    3.7270 hc        1 MOL      0.014860
    105 H46         0.6890   -2.7660    4.8380 hc        1 MOL      0.014860
    106 H47         2.9810   -2.1310    2.6140 hc        1 MOL      0.063638
    107 H48         2.9860   -3.1560    4.1510 hc        1 MOL      0.063638
    108 H49         3.3850   -3.8100    2.5780 hc        1 MOL      0.063638
    109 H50        -1.2430   -1.7880    2.8310 hc        1 MOL      0.019484
    110 H51        -1.5340   -3.4330    3.4310 hc        1 MOL      0.019484
    111 H52        -1.4580   -2.0070    4.5500 hc        1 MOL      0.019484
    112 N10         2.4400   -2.5190   -0.3810 n         1 MOL     -0.118678
    113 C35         3.6690   -2.4920   -1.1400 c3        1 MOL     -0.073935
    114 C36         4.8970   -2.3900   -0.2520 c         1 MOL      0.517585
    115 O17         4.9500   -2.0520    0.9580 o         1 MOL     -0.397355
    116 C37         3.5890   -1.3560   -2.1710 c3        1 MOL      0.467293
    117 C38         2.5340   -1.5670   -3.2930 c3        1 MOL     -0.451377
    118 O18         3.4370   -0.1660   -1.4840 oh        1 MOL     -0.669846
    119 H53         1.9560   -1.6390   -0.3130 hn        1 MOL      0.110274
    120 H54         3.8670   -3.3900   -1.7140 h1        1 MOL      0.056565
    121 H55         4.6070   -1.3490   -2.5500 h1        1 MOL     -0.061404
    122 H56         2.5900   -0.1240   -1.0240 ho        1 MOL      0.402364
    123 H57         2.8780   -1.0680   -4.2000 hc        1 MOL      0.113740
    124 H58         2.4430   -2.6470   -3.4370 hc        1 MOL      0.113740
    125 H59         1.5710   -1.1400   -3.0310 hc        1 MOL      0.113740
    126 N11         6.0500   -2.3660   -0.9310 n         1 MOL     -0.456081
    127 C39         7.3420   -1.8560   -0.4370 c3        1 MOL     -0.098393
    128 C40         7.2550   -0.3970   -0.0370 c         1 MOL      0.328930
    129 O19         7.9900   -0.0150    0.9110 o         1 MOL     -0.522207
    130 C41         8.4300   -2.0200   -1.5370 c3        1 MOL      0.287255
    131 C42         8.6370   -3.4730   -1.9360 c3        1 MOL     -0.586511
    132 O20         8.1140   -1.2060   -2.6370 oh        1 MOL     -0.605875
    133 H60         5.9880   -2.6360   -1.9100 hn        1 MOL      0.291524
    134 H61         7.6740   -2.4940    0.3830 h1        1 MOL      0.160618
    135 H62         9.3930   -1.6760   -1.1730 h1        1 MOL      0.033188
    136 H63         8.9680   -1.1360   -3.0810 ho        1 MOL      0.401878
    137 H64         9.6320   -3.5200   -2.3780 hc        1 MOL      0.172899
    138 H65         8.6940   -4.1150   -1.0570 hc        1 MOL      0.172899
    139 H66         7.9000   -3.7460   -2.6870 hc        1 MOL      0.172899
    140 N12         6.3410    0.4020   -0.6210 n         1 MOL      0.039241
    141 C43         6.1620    1.8410   -0.2880 c3        1 MOL      0.002797
    142 C44         5.3100    2.0990    0.9740 c         1 MOL      0.605910
    143 O21         5.1650    3.2370    1.3130 o         1 MOL     -0.575907
    144 C45         5.7370    2.6700   -1.5140 c3        1 MOL     -0.411656
    145 C46         6.5590    2.3800   -2.8040 c3        1 MOL      0.226935
    146 C47         8.0970    2.3960   -2.6520 c3        1 MOL     -0.014288
    147 C48         8.8480    2.1300   -3.9840 c3        1 MOL     -0.017765
    148 N13        10.3080    2.2610   -3.8480 n4        1 MOL     -0.452495
    149 H67         5.7880    0.0520   -1.3840 hn        1 MOL      0.249273
    150 H68         7.0830    2.2740    0.0920 h1        1 MOL      0.061655
    151 H69         5.9230    3.7040   -1.2140 hc        1 MOL      0.126711
    152 H70         4.6710    2.6030   -1.7480 hc        1 MOL      0.126711
    153 H71         6.3410    3.1090   -3.5870 hc        1 MOL     -0.036572
    154 H72         6.1940    1.4370   -3.2210 hc        1 MOL     -0.036572
    155 H73         8.3710    1.6390   -1.9080 hc        1 MOL      0.024729
    156 H74         8.3550    3.3920   -2.2830 hc        1 MOL      0.024729
    157 H75         8.4580    2.9650   -4.5580 hx        1 MOL      0.086965
    158 H76         8.4690    1.1820   -4.3930 hx        1 MOL      0.086965
    159 H77        10.6490    1.4890   -3.2840 hn        1 MOL      0.362931
    160 H78        10.7280    2.2410   -4.7670 hn        1 MOL      0.362931
    161 H79        10.5030    3.1580   -3.4300 hn        1 MOL      0.362931
    162 N14         4.8830    1.0720    1.6860 n         1 MOL     -0.171618
    163 C49         3.9440    1.2000    2.8320 c3        1 MOL     -0.166935
    164 C50         4.3240    0.2750    3.9720 c         1 MOL      0.553478
    165 O22         4.0720    0.5420    5.1260 o         1 MOL     -0.537219
    166 C51         2.5940    0.7950    2.2360 c3        1 MOL      0.097876
    167 C52         2.0120    1.7530    1.2650 c3        1 MOL      0.147379
    168 C53         0.8100    0.9890    0.6880 c         1 MOL      0.664243
    169 O23         1.1180   -0.0460   -0.0210 o         1 MOL     -0.780488
    170 O24        -0.3890    1.3830    0.7650 o         1 MOL     -0.780488
    171 H80         4.9780    0.1390    1.3110 hn        1 MOL     -0.292151
    172 H81         3.8620    2.2240    3.1880 h1        1 MOL      0.140440
    173 H82         1.9600    0.6110    3.0930 hc        1 MOL      0.038558
    174 H83         2.7230   -0.1910    1.7970 hc        1 MOL      0.038558
    175 H84         2.6900    2.0290    0.4470 hc        1 MOL     -0.031585
    176 H85         1.7150    2.6260    1.8280 hc        1 MOL     -0.031585
    177 N15         5.1360   -0.7560    3.7140 n         1 MOL     -0.240914
    178 C54         5.7260   -1.6620    4.7240 c3        1 MOL     -0.321913
    179 H86         6.4370   -1.1080    5.3360 h1        1 MOL      0.125317
    180 H87         4.9350   -2.0630    5.3590 h1        1 MOL      0.125317
    181 H88         6.2410   -2.4810    4.2220 h1        1 MOL      0.125317
    182 H89         5.3500   -1.0230    2.7660 hn        1 MOL      0.352522
    183 Ca1        -1.5710   -0.0620   -1.1770 Ca        1 MOL      1.844932
    184 O25        -0.5440   -2.4970   -2.4690 oh        1 MOL     -0.840122
    185 H90        -0.3060   -2.3420   -3.3800 ho        1 MOL      0.402718
    186 H91        -1.0350   -3.3120   -2.4840 ho        1 MOL      0.402718
    187 O26        -0.0670    0.6650   -3.5650 oh        1 MOL     -0.840122
    188 H92        -0.3820    0.4970   -4.4600 ho        1 MOL      0.402718
    189 H93         0.6400    1.2960   -3.6770 ho        1 MOL      0.402718
@<TRIPOS>BOND
     1    1    2 1   
     2    1    4 1   
     3    1    5 1   
     4    1    6 1   
     5    2    3 2   
     6    2    7 1   
     7    7    8 1   
     8    7   15 1   
     9    8    9 1   
    10    8   11 1   
    11    8   16 1   
    12    9   10 2   
    13    9   19 1   
    14   11   12 1   
    15   11   17 1   
    16   11   18 1   
    17   12   13 1   
    18   12   14 1   
    19   19   20 1   
    20   19   28 1   
    21   20   21 1   
    22   20   23 1   
    23   20   29 1   
    24   21   22 2   
    25   21   41 1   
    26   23   24 1   
    27   23   30 1   
    28   23   31 1   
    29   24   25 1   
    30   24   32 1   
    31   24   33 1   
    32   25   26 1   
    33   25   34 1   
    34   25   35 1   
    35   26   27 1   
    36   26   36 1   
    37   26   37 1   
    38   27   38 1   
    39   27   39 1   
    40   27   40 1   
    41   41   42 1   
    42   41   49 1   
    43   42   43 1   
    44   42   45 1   
    45   42   50 1   
    46   43   44 2   
    47   43   53 1   
    48   45   46 1   
    49   45   51 1   
    50   45   52 1   
    51   46   47 1   
    52   46   48 1   
    53   53   54 1   
    54   53   57 1   
    55   54   55 1   
    56   54   58 1   
    57   54   59 1   
    58   55   56 2   
    59   55   60 1   
    60   60   61 1   
    61   60   68 1   
    62   61   62 1   
    63   61   64 1   
    64   61   69 1   
    65   62   63 2   
    66   62   72 1   
    67   64   65 1   
    68   64   70 1   
    69   64   71 1   
    70   65   66 1   
    71   65   67 1   
    72   72   73 1   
    73   72   76 1   
    74   73   74 1   
    75   73   77 1   
    76   73   78 1   
    77   74   75 2   
    78   74   79 1   
    79   79   80 1   
    80   79   86 1   
    81   80   81 1   
    82   80   83 1   
    83   80   87 1   
    84   81   82 2   
    85   81   93 1   
    86   83   84 1   
    87   83   85 1   
    88   83   88 1   
    89   84   90 1   
    90   84   91 1   
    91   84   92 1   
    92   85   89 1   
    93   93   94 1   
    94   93  101 1   
    95   94   95 1   
    96   94   97 1   
    97   94  102 1   
    98   95   96 2   
    99   95  112 1   
   100   97   98 1   
   101   97   99 1   
   102   97  103 1   
   103   98  100 1   
   104   98  104 1   
   105   98  105 1   
   106   99  106 1   
   107   99  107 1   
   108   99  108 1   
   109  100  109 1   
   110  100  110 1   
   111  100  111 1   
   112  112  113 1   
   113  112  119 1   
   114  113  114 1   
   115  113  116 1   
   116  113  120 1   
   117  114  115 2   
   118  114  126 1   
   119  116  117 1   
   120  116  118 1   
   121  116  121 1   
   122  117  123 1   
   123  117  124 1   
   124  117  125 1   
   125  118  122 1   
   126  126  127 1   
   127  126  133 1   
   128  127  128 1   
   129  127  130 1   
   130  127  134 1   
   131  128  129 2   
   132  128  140 1   
   133  130  131 1   
   134  130  132 1   
   135  130  135 1   
   136  131  137 1   
   137  131  138 1   
   138  131  139 1   
   139  132  136 1   
   140  140  141 1   
   141  140  149 1   
   142  141  142 1   
   143  141  144 1   
   144  141  150 1   
   145  142  143 2   
   146  142  162 1   
   147  144  145 1   
   148  144  151 1   
   149  144  152 1   
   150  145  146 1   
   151  145  153 1   
   152  145  154 1   
   153  146  147 1   
   154  146  155 1   
   155  146  156 1   
   156  147  148 1   
   157  147  157 1   
   158  147  158 1   
   159  148  159 1   
   160  148  160 1   
   161  148  161 1   
   162  162  163 1   
   163  162  171 1   
   164  163  164 1   
   165  163  166 1   
   166  163  172 1   
   167  164  165 2   
   168  164  177 1   
   169  166  167 1   
   170  166  173 1   
   171  166  174 1   
   172  167  168 1   
   173  167  175 1   
   174  167  176 1   
   175  168  169 1   
   176  168  170 1   
   177  177  178 1   
   178  177  182 1   
   179  178  179 1   
   180  178  180 1   
   181  178  181 1   
   182  184  185 1   
   183  184  186 1   
   184  187  188 1   
   185  187  189 1   
@<TRIPOS>SUBSTRUCTURE
     1 MOL         1 TEMP              0 ****  ****    0 ROOT
