@<TRIPOS>MOLECULE
MOL
  186   183     1     0     0
SMALL
resp


@<TRIPOS>ATOM
      1 C1          0.7670   -1.6560    6.5870 c3        1 MOL     -0.309329
      2 C2          1.0830   -1.8440    5.0570 c         1 MOL      0.745569
      3 O1          0.3080   -2.4460    4.3360 o         1 MOL     -0.582544
      4 H1          0.3340   -0.6690    6.7490 hc        1 MOL      0.064504
      5 H2          0.0600   -2.4200    6.9100 hc        1 MOL      0.064504
      6 H3          1.6890   -1.7460    7.1630 hc        1 MOL      0.064504
      7 N1          2.1360   -1.1820    4.6340 n         1 MOL     -0.603199
      8 C3          2.5830   -1.3630    3.2450 c3        1 MOL      0.096374
      9 C4          2.9600   -2.8040    3.0270 c         1 MOL      0.566948
     10 O2          3.6440   -3.3960    3.8770 o         1 MOL     -0.574333
     11 C5          3.8060   -0.4530    2.9890 c3        1 MOL     -0.166957
     12 C6          4.4700   -0.2930    1.5460 c         1 MOL      0.797062
     13 O3          3.8200   -0.6970    0.5760 o         1 MOL     -0.675350
     14 O4          5.5640    0.2030    1.4550 o         1 MOL     -0.675350
     15 H4          2.6530   -0.5070    5.1800 hn        1 MOL      0.319662
     16 H5          1.7750   -1.0680    2.5830 h1        1 MOL      0.020648
     17 H6          4.6430   -0.6680    3.6580 hc        1 MOL      0.023104
     18 H7          3.4240    0.5420    3.2280 hc        1 MOL      0.023104
     19 N2          2.4410   -3.2980    1.8810 n         1 MOL     -0.338811
     20 C7          2.5590   -4.7570    1.4460 c3        1 MOL     -0.061016
     21 C8          3.7930   -4.9230    0.4770 c         1 MOL      0.502479
     22 O5          4.6600   -5.8140    0.7280 o         1 MOL     -0.601432
     23 C9          1.2840   -5.2880    0.8970 c3        1 MOL      0.320763
     24 C10         0.3050   -5.5920    2.0760 c3        1 MOL      0.070272
     25 C11         1.4630   -6.4880   -0.0520 c3        1 MOL     -0.348259
     26 C12        -1.1490   -6.0460    1.7030 c3        1 MOL     -0.323884
     27 H8          1.9080   -2.6840    1.2870 hn        1 MOL      0.238489
     28 H9          2.7410   -5.2960    2.3670 h1        1 MOL      0.022104
     29 H10         0.8170   -4.4800    0.3270 hc        1 MOL     -0.034134
     30 H11         0.2050   -4.6820    2.6780 hc        1 MOL     -0.011899
     31 H12         0.6660   -6.4400    2.6590 hc        1 MOL     -0.011899
     32 H13         1.9870   -7.2690    0.5050 hc        1 MOL      0.067398
     33 H14         0.5060   -6.8830   -0.3980 hc        1 MOL      0.067398
     34 H15         2.0520   -6.1620   -0.9110 hc        1 MOL      0.067398
     35 H16        -1.1500   -6.9730    1.1270 hc        1 MOL      0.075497
     36 H17        -1.7050   -6.0250    2.6340 hc        1 MOL      0.075497
     37 H18        -1.6110   -5.3140    1.0430 hc        1 MOL      0.075497
     38 N3          3.8730   -4.1010   -0.5470 n         1 MOL     -0.017804
     39 C13         4.8540   -4.2150   -1.6080 c3        1 MOL     -0.307074
     40 C14         6.1200   -3.3590   -1.6790 c         1 MOL      0.480628
     41 O6          7.0300   -3.5450   -2.5200 o         1 MOL     -0.535778
     42 C15         4.0650   -4.2740   -2.9530 c3        1 MOL     -0.095349
     43 C16         3.1410   -3.0460   -3.2260 c         1 MOL      0.781786
     44 O7          3.2890   -1.9700   -2.5790 o         1 MOL     -0.719694
     45 O8          2.2440   -3.1780   -4.0770 o         1 MOL     -0.719694
     46 H19         3.2520   -3.3040   -0.5220 hn        1 MOL      0.060362
     47 H20         5.2910   -5.2090   -1.5410 h1        1 MOL      0.144026
     48 H21         3.4280   -5.1540   -2.8950 hc        1 MOL      0.031641
     49 H22         4.7600   -4.4040   -3.7750 hc        1 MOL      0.031641
     50 N4          6.2040   -2.5300   -0.7060 n         1 MOL     -0.082596
     51 C17         7.4480   -1.9290   -0.1960 c3        1 MOL     -0.101937
     52 C18         7.9470   -0.6360   -0.8890 c         1 MOL      0.522839
     53 O9          9.0490   -0.6390   -1.4840 o         1 MOL     -0.600177
     54 H23         5.3900   -2.4650   -0.1200 hn        1 MOL      0.134299
     55 H24         8.2450   -2.6710   -0.2300 h1        1 MOL      0.055554
     56 H25         7.3340   -1.5450    0.8180 h1        1 MOL      0.055554
     57 N5          7.0970    0.3060   -0.9120 n         1 MOL     -0.200095
     58 C19         7.3080    1.5490   -1.7080 c3        1 MOL      0.107742
     59 C20         7.1300    2.7990   -0.8200 c         1 MOL      0.443097
     60 O10         7.2100    3.9010   -1.3020 o         1 MOL     -0.547719
     61 C21         6.3590    1.6080   -2.9000 c3        1 MOL     -0.156641
     62 C22         4.9420    1.3430   -2.4920 c         1 MOL      0.719746
     63 O11         4.2770    0.6010   -3.2890 o         1 MOL     -0.728156
     64 O12         4.4050    1.9140   -1.5210 o         1 MOL     -0.728156
     65 H26         6.3010    0.2930   -0.2960 hn        1 MOL     -0.047364
     66 H27         8.3520    1.5940   -2.0050 h1        1 MOL      0.036930
     67 H28         6.6920    0.8460   -3.6030 hc        1 MOL      0.049201
     68 H29         6.4670    2.5890   -3.3680 hc        1 MOL      0.049201
     69 N6          6.8470    2.5940    0.4390 n         1 MOL     -0.373177
     70 C23         6.6490    3.6560    1.3920 c3        1 MOL     -0.197476
     71 C24         5.2680    4.2790    1.4850 c         1 MOL      0.538958
     72 O13         5.0890    5.2300    2.2870 o         1 MOL     -0.619358
     73 H30         6.6990    1.6630    0.7880 hn        1 MOL      0.334236
     74 H31         7.3450    4.4290    1.0690 h1        1 MOL      0.117260
     75 H32         6.9290    3.3110    2.3830 h1        1 MOL      0.117260
     76 N7          4.2990    3.8810    0.7000 n         1 MOL     -0.309061
     77 C25         2.9030    4.3050    0.8630 c3        1 MOL      0.068944
     78 C26         1.7920    3.1840    0.9300 c         1 MOL      0.549888
     79 O14         1.9050    2.1670    0.3360 o         1 MOL     -0.578185
     80 C27         2.4530    5.4270   -0.1390 c3        1 MOL      0.014001
     81 C28         3.2320    6.7370    0.0390 c3        1 MOL     -0.324869
     82 C29         2.5040    7.8700   -0.6680 c         1 MOL      0.638464
     83 N8          2.7750    8.0650   -1.9780 n         1 MOL     -0.810590
     84 O15         1.6670    8.6000   -0.1000 o         1 MOL     -0.569465
     85 H33         4.5570    3.1400    0.0670 hn        1 MOL      0.290845
     86 H34         2.7590    4.6690    1.8800 h1        1 MOL      0.043934
     87 H35         1.4220    5.6800    0.1070 hc        1 MOL      0.033253
     88 H36         2.4310    5.0560   -1.1630 hc        1 MOL      0.033253
     89 H37         4.2430    6.7650   -0.3640 hc        1 MOL      0.113782
     90 H38         3.3290    6.9320    1.1140 hc        1 MOL      0.113782
     91 H39         3.5210    7.4790   -2.3210 hn        1 MOL      0.371170
     92 H40         2.2530    8.7900   -2.4510 hn        1 MOL      0.371170
     93 N9          0.7600    3.4070    1.7860 n         1 MOL     -0.451506
     94 C30        -0.4380    2.5350    1.8700 c3        1 MOL      0.113955
     95 C31        -1.5610    2.9790    0.9360 c         1 MOL      0.308955
     96 O16        -2.0940    4.1070    1.0550 o         1 MOL     -0.538652
     97 C32        -0.9440    2.4370    3.2990 c3        1 MOL      0.114864
     98 C33        -2.3390    1.8490    3.5800 c3        1 MOL     -0.276284
     99 C34         0.0850    1.6410    4.1350 c3        1 MOL     -0.276284
    100 H41         0.8340    4.2470    2.3370 hn        1 MOL      0.267512
    101 H42        -0.1710    1.5510    1.4960 h1        1 MOL      0.132031
    102 H43        -0.9670    3.4610    3.6770 hc        1 MOL      0.013868
    103 H44        -2.4580    1.6980    4.6570 hc        1 MOL      0.062950
    104 H45        -3.1820    2.3540    3.1050 hc        1 MOL      0.062950
    105 H46        -2.3350    0.8170    3.2240 hc        1 MOL      0.062950
    106 H47        -0.2310    1.5550    5.1760 hc        1 MOL      0.062950
    107 H48         0.1450    0.6040    3.8090 hc        1 MOL      0.062950
    108 H49         1.0690    2.1110    4.1370 hc        1 MOL      0.062950
    109 N10        -1.7310    2.1700   -0.0990 n         1 MOL     -0.152193
    110 C35        -2.9410    2.2550   -0.9570 c3        1 MOL     -0.049120
    111 C36        -4.2570    2.1050   -0.1730 c         1 MOL      0.392128
    112 O17        -4.1990    1.4480    0.8510 o         1 MOL     -0.303064
    113 C37        -2.8390    1.1570   -2.0160 c3        1 MOL      0.007570
    114 C38        -3.6410    1.4860   -3.2660 c         1 MOL      0.554378
    115 N11        -3.0560    1.3770   -4.4410 n         1 MOL     -0.763697
    116 O18        -4.8780    1.7550   -3.2640 o         1 MOL     -0.569200
    117 H50        -1.0880    1.3940   -0.0960 hn        1 MOL      0.170729
    118 H51        -2.8430    3.2000   -1.4780 h1        1 MOL      0.073789
    119 H52        -3.1880    0.2430   -1.5370 hc        1 MOL      0.033319
    120 H53        -1.7780    1.2210   -2.2650 hc        1 MOL      0.033319
    121 H54        -2.1000    1.0560   -4.5750 hn        1 MOL      0.387863
    122 H55        -3.5980    1.5700   -5.2700 hn        1 MOL      0.387863
    123 N12        -5.4480    2.4690   -0.6490 n         1 MOL     -0.541285
    124 C39        -6.7180    1.9550   -0.0590 c3        1 MOL      0.265460
    125 C40        -6.7600    0.3910   -0.1010 c         1 MOL      0.709753
    126 O19        -7.2080   -0.2310    0.8920 o         1 MOL     -0.557374
    127 C41        -7.8890    2.5940   -0.9090 c3        1 MOL     -0.123185
    128 C42        -9.2190    2.0030   -0.5450 ca        1 MOL      0.111453
    129 C43        -9.8190    2.3940    0.6750 ca        1 MOL     -0.343859
    130 C44        -9.7780    1.0050   -1.3540 ca        1 MOL     -0.343859
    131 C45       -11.1060    1.8810    0.9850 ca        1 MOL     -0.002384
    132 C46       -11.0230    0.4530   -0.9620 ca        1 MOL     -0.002384
    133 C47       -11.7480    0.9660    0.1030 ca        1 MOL      0.061721
    134 O20       -12.9210    0.3690    0.4880 oh        1 MOL     -0.465889
    135 H56        -5.3620    3.0130   -1.4960 hn        1 MOL      0.288789
    136 H57        -6.8030    2.3070    0.9700 h1        1 MOL      0.012279
    137 H58        -7.7920    2.4840   -1.9810 hc        1 MOL      0.056850
    138 H59        -7.9040    3.6740   -0.7430 hc        1 MOL      0.056850
    139 H60        -9.3810    3.1400    1.3370 ha        1 MOL      0.171440
    140 H61        -9.3520    0.6660   -2.2830 ha        1 MOL      0.171440
    141 H62       -11.5420    2.1510    1.9370 ha        1 MOL      0.091398
    142 H63       -11.4880   -0.3340   -1.5370 ha        1 MOL      0.091398
    143 H64       -13.3140   -0.1210   -0.2380 ho        1 MOL      0.361249
    144 N13        -6.1700   -0.1680   -1.1770 n         1 MOL     -0.580965
    145 C48        -5.9750   -1.6280   -1.3140 c3        1 MOL      0.264091
    146 C49        -5.1370   -2.2000   -0.1750 c         1 MOL      0.099300
    147 O21        -5.4750   -3.3490    0.2190 o         1 MOL     -0.499518
    148 C50        -5.4480   -1.7970   -2.6980 c3        1 MOL      0.013201
    149 C51        -5.2510   -3.2760   -3.0420 c3        1 MOL     -0.322333
    150 C52        -4.7510   -3.4990   -4.5270 c         1 MOL      0.700929
    151 O22        -4.5060   -4.6380   -4.9550 o         1 MOL     -0.729816
    152 O23        -4.6310   -2.4770   -5.2860 o         1 MOL     -0.729816
    153 H65        -5.7220    0.4400   -1.8450 hn        1 MOL      0.241554
    154 H66        -6.9350   -2.1340   -1.2890 h1        1 MOL      0.039039
    155 H67        -4.5000   -1.2550   -2.6620 hc        1 MOL      0.031914
    156 H68        -6.1980   -1.3070   -3.3060 hc        1 MOL      0.031914
    157 H69        -6.2230   -3.7680   -2.9490 hc        1 MOL      0.073622
    158 H70        -4.6320   -3.8110   -2.3270 hc        1 MOL      0.073622
    159 N14        -4.1640   -1.4760    0.3760 n         1 MOL      0.097783
    160 C53        -3.3700   -1.9810    1.4860 c3        1 MOL     -0.082972
    161 C54        -4.0200   -1.6630    2.8770 c         1 MOL      0.410736
    162 O24        -3.6120   -2.3210    3.8140 o         1 MOL     -0.511369
    163 C55        -1.9800   -1.2980    1.3630 c3        1 MOL     -0.008139
    164 C56        -1.2130   -2.0610    0.2850 c3        1 MOL     -0.173610
    165 C57         0.0270   -1.3000   -0.1720 c         1 MOL      0.554549
    166 O25         1.1260   -1.8800   -0.1640 o         1 MOL     -0.688242
    167 O26        -0.0460   -0.0960   -0.5060 o         1 MOL     -0.688242
    168 H71        -3.9890   -0.5830   -0.0520 hn        1 MOL      0.031080
    169 H72        -3.2640   -3.0590    1.3510 h1        1 MOL      0.105763
    170 H73        -1.4480   -1.1460    2.3020 hc        1 MOL      0.100184
    171 H74        -2.1440   -0.2610    1.0570 hc        1 MOL      0.100184
    172 H75        -1.7740   -2.3970   -0.5910 hc        1 MOL      0.086840
    173 H76        -0.7700   -2.9500    0.7430 hc        1 MOL      0.086840
    174 N15        -5.0290   -0.7250    2.8690 n         1 MOL     -0.084880
    175 C58        -5.7290   -0.3520    4.1060 c3        1 MOL     -0.136490
    176 H77        -6.8030   -0.4640    3.9620 h1        1 MOL      0.056896
    177 H78        -5.4020   -1.0010    4.9190 h1        1 MOL      0.056896
    178 H79        -5.5010    0.6840    4.3540 h1        1 MOL      0.056896
    179 H80        -5.0870   -0.0700    2.1030 hn        1 MOL      0.037483
    180 Ca1         2.4060    0.1050   -1.4620 Ca        1 MOL      1.745092
    181 O27         0.5730   -0.9540   -3.4390 oh        1 MOL     -0.838646
    182 H81        -0.1930   -1.4730   -3.2050 ho        1 MOL      0.405789
    183 H82         1.2630   -1.5950   -3.5970 ho        1 MOL      0.405789
    184 O28         1.4290    2.3670   -2.7440 oh        1 MOL     -0.838646
    185 H83         1.4990    2.2410   -3.6850 ho        1 MOL      0.405789
    186 H84         1.4260    3.3070   -2.6120 ho        1 MOL      0.405789
@<TRIPOS>BOND
     1    1    2 1   
     2    1    4 1   
     3    1    5 1   
     4    1    6 1   
     5    2    3 2   
     6    2    7 1   
     7    7    8 1   
     8    7   15 1   
     9    8    9 1   
    10    8   11 1   
    11    8   16 1   
    12    9   10 2   
    13    9   19 1   
    14   11   12 1   
    15   11   17 1   
    16   11   18 1   
    17   12   13 1   
    18   12   14 1   
    19   19   20 1   
    20   19   27 1   
    21   20   21 1   
    22   20   23 1   
    23   20   28 1   
    24   21   22 2   
    25   21   38 1   
    26   23   24 1   
    27   23   25 1   
    28   23   29 1   
    29   24   26 1   
    30   24   30 1   
    31   24   31 1   
    32   25   32 1   
    33   25   33 1   
    34   25   34 1   
    35   26   35 1   
    36   26   36 1   
    37   26   37 1   
    38   38   39 1   
    39   38   46 1   
    40   39   40 1   
    41   39   42 1   
    42   39   47 1   
    43   40   41 2   
    44   40   50 1   
    45   42   43 1   
    46   42   48 1   
    47   42   49 1   
    48   43   44 1   
    49   43   45 1   
    50   50   51 1   
    51   50   54 1   
    52   51   52 1   
    53   51   55 1   
    54   51   56 1   
    55   52   53 2   
    56   52   57 1   
    57   57   58 1   
    58   57   65 1   
    59   58   59 1   
    60   58   61 1   
    61   58   66 1   
    62   59   60 2   
    63   59   69 1   
    64   61   62 1   
    65   61   67 1   
    66   61   68 1   
    67   62   63 1   
    68   62   64 1   
    69   69   70 1   
    70   69   73 1   
    71   70   71 1   
    72   70   74 1   
    73   70   75 1   
    74   71   72 2   
    75   71   76 1   
    76   76   77 1   
    77   76   85 1   
    78   77   78 1   
    79   77   80 1   
    80   77   86 1   
    81   78   79 2   
    82   78   93 1   
    83   80   81 1   
    84   80   87 1   
    85   80   88 1   
    86   81   82 1   
    87   81   89 1   
    88   81   90 1   
    89   82   83 1   
    90   82   84 2   
    91   83   91 1   
    92   83   92 1   
    93   93   94 1   
    94   93  100 1   
    95   94   95 1   
    96   94   97 1   
    97   94  101 1   
    98   95   96 2   
    99   95  109 1   
   100   97   98 1   
   101   97   99 1   
   102   97  102 1   
   103   98  103 1   
   104   98  104 1   
   105   98  105 1   
   106   99  106 1   
   107   99  107 1   
   108   99  108 1   
   109  109  110 1   
   110  109  117 1   
   111  110  111 1   
   112  110  113 1   
   113  110  118 1   
   114  111  112 2   
   115  111  123 1   
   116  113  114 1   
   117  113  119 1   
   118  113  120 1   
   119  114  115 1   
   120  114  116 2   
   121  115  121 1   
   122  115  122 1   
   123  123  124 1   
   124  123  135 1   
   125  124  125 1   
   126  124  127 1   
   127  124  136 1   
   128  125  126 2   
   129  125  144 1   
   130  127  128 1   
   131  127  137 1   
   132  127  138 1   
   133  128  129 ar  
   134  128  130 ar  
   135  129  131 ar  
   136  129  139 1   
   137  130  132 ar  
   138  130  140 1   
   139  131  133 ar  
   140  131  141 1   
   141  132  133 ar  
   142  132  142 1   
   143  133  134 1   
   144  134  143 1   
   145  144  145 1   
   146  144  153 1   
   147  145  146 1   
   148  145  148 1   
   149  145  154 1   
   150  146  147 2   
   151  146  159 1   
   152  148  149 1   
   153  148  155 1   
   154  148  156 1   
   155  149  150 1   
   156  149  157 1   
   157  149  158 1   
   158  150  151 1   
   159  150  152 1   
   160  159  160 1   
   161  159  168 1   
   162  160  161 1   
   163  160  163 1   
   164  160  169 1   
   165  161  162 2   
   166  161  174 1   
   167  163  164 1   
   168  163  170 1   
   169  163  171 1   
   170  164  165 1   
   171  164  172 1   
   172  164  173 1   
   173  165  166 1   
   174  165  167 1   
   175  174  175 1   
   176  174  179 1   
   177  175  176 1   
   178  175  177 1   
   179  175  178 1   
   180  181  182 1   
   181  181  183 1   
   182  184  185 1   
   183  184  186 1   
@<TRIPOS>SUBSTRUCTURE
     1 MOL         1 TEMP              0 ****  ****    0 ROOT
