@<TRIPOS>MOLECULE
MOL
  189   185     1     0     0
SMALL
resp


@<TRIPOS>ATOM
      1 C1         -0.9980   -0.1270    6.7490 c3        1 MOL     -0.376957
      2 C2         -1.0660    0.0940    5.2220 c         1 MOL      0.719358
      3 O1         -0.0870    0.5520    4.6420 o         1 MOL     -0.602535
      4 H1         -1.5400    0.6710    7.2560 hc        1 MOL      0.097254
      5 H2         -1.4500   -1.0880    6.9980 hc        1 MOL      0.097254
      6 H3          0.0430   -0.1200    7.0720 hc        1 MOL      0.097254
      7 N1         -2.2050   -0.2420    4.6180 n         1 MOL     -0.613123
      8 C3         -2.6090    0.1810    3.2900 c3        1 MOL      0.021916
      9 C4         -2.9430    1.6590    3.2830 c         1 MOL      0.627269
     10 O2         -3.8560    2.1450    3.9350 o         1 MOL     -0.543991
     11 C5         -3.7910   -0.5930    2.7130 c3        1 MOL     -0.128650
     12 C6         -4.1630    0.0430    1.3620 c         1 MOL      0.478755
     13 O3         -5.3570    0.3160    1.1470 o         1 MOL     -0.543133
     14 O4         -3.3540    0.3770    0.5360 o         1 MOL     -0.543133
     15 H4         -2.9130   -0.6030    5.2320 hn        1 MOL      0.326839
     16 H5         -1.7710    0.0220    2.6140 h1        1 MOL      0.099808
     17 H6         -4.6430   -0.4490    3.3760 hc        1 MOL      0.057914
     18 H7         -3.5370   -1.6450    2.5360 hc        1 MOL      0.057914
     19 N2         -2.2150    2.4140    2.4260 n         1 MOL     -0.376894
     20 C7         -2.3490    3.8390    2.2070 c3        1 MOL     -0.043350
     21 C8         -3.5550    4.1810    1.3070 c         1 MOL      0.443976
     22 O5         -4.3420    5.0760    1.6490 o         1 MOL     -0.551007
     23 C9         -1.0080    4.3820    1.6750 c3        1 MOL      0.022770
     24 C10        -0.8670    5.8340    1.6520 c3        1 MOL     -0.061856
     25 C11         0.5270    6.1530    1.0820 c3        1 MOL     -0.205146
     26 C12         0.7730    5.9270   -0.4230 c3        1 MOL     -0.024074
     27 N3         -0.1620    6.6300   -1.3230 n4        1 MOL     -0.308753
     28 H8         -1.6070    1.9520    1.7650 hn        1 MOL      0.154756
     29 H9         -2.4930    4.2930    3.1890 h1        1 MOL      0.092694
     30 H10        -0.8130    3.9050    0.7180 hc        1 MOL      0.093153
     31 H11        -0.2880    4.0900    2.4350 hc        1 MOL      0.093153
     32 H12        -1.0700    6.1810    2.6670 hc        1 MOL      0.038519
     33 H13        -1.6670    6.2140    1.0190 hc        1 MOL      0.038519
     34 H14         1.3400    5.6830    1.6440 hc        1 MOL      0.082768
     35 H15         0.7680    7.2110    1.1570 hc        1 MOL      0.082768
     36 H16         0.6740    4.8720   -0.6960 hx        1 MOL      0.080619
     37 H17         1.7840    6.1940   -0.7290 hx        1 MOL      0.080619
     38 H18        -0.3990    7.5760   -1.0570 hn        1 MOL      0.309888
     39 H19         0.1970    6.6650   -2.2690 hn        1 MOL      0.309888
     40 H20        -1.0010    6.0760   -1.2650 hn        1 MOL      0.309888
     41 N4         -3.7780    3.4130    0.2470 n         1 MOL     -0.003110
     42 C13        -4.5390    3.9180   -0.8550 c3        1 MOL     -0.175182
     43 C14        -6.0570    3.6700   -0.8510 c         1 MOL      0.447437
     44 O6         -6.7400    4.1080   -1.7720 o         1 MOL     -0.515369
     45 C15        -3.9650    3.3860   -2.1460 c3        1 MOL     -0.200945
     46 C16        -2.4450    3.3210   -2.1070 c         1 MOL      0.852705
     47 O7         -1.7850    2.2470   -2.1840 o         1 MOL     -0.781792
     48 O8         -1.8360    4.4080   -2.0170 o         1 MOL     -0.781792
     49 H21        -3.1850    2.6000    0.1930 hn        1 MOL      0.118592
     50 H22        -4.3930    5.0010   -0.9040 h1        1 MOL      0.085430
     51 H23        -4.3280    3.9980   -2.9700 hc        1 MOL      0.077687
     52 H24        -4.2250    2.3430   -2.3050 hc        1 MOL      0.077687
     53 N5         -6.5680    2.6680   -0.1760 n         1 MOL     -0.220424
     54 C17        -7.8830    2.0750   -0.4170 c3        1 MOL     -0.221247
     55 C18        -7.8510    0.9950   -1.5020 c         1 MOL      0.454898
     56 O9         -8.7460    0.9180   -2.3650 o         1 MOL     -0.546094
     57 H25        -5.8840    2.1800    0.3960 hn        1 MOL      0.174322
     58 H26        -8.5390    2.8360   -0.8310 h1        1 MOL      0.125327
     59 H27        -8.3140    1.6330    0.4860 h1        1 MOL      0.125327
     60 N6         -6.7380    0.2170   -1.5680 n         1 MOL     -0.094884
     61 C19        -6.7620   -1.0070   -2.3440 c3        1 MOL     -0.022050
     62 C20        -6.7070   -2.2780   -1.3250 c         1 MOL      0.275559
     63 O10        -7.0390   -3.4170   -1.7310 o         1 MOL     -0.485100
     64 C21        -5.6420   -1.0520   -3.3120 c3        1 MOL     -0.204862
     65 C22        -4.2880   -0.8660   -2.7110 c         1 MOL      0.654122
     66 O11        -3.8900   -1.6850   -1.8630 o         1 MOL     -0.701124
     67 O12        -3.5760    0.0410   -3.1190 o         1 MOL     -0.701124
     68 H28        -6.0790    0.4550   -0.8450 hn        1 MOL      0.179125
     69 H29        -7.6840   -1.0520   -2.9180 h1        1 MOL      0.119322
     70 H30        -5.8310   -0.2920   -4.0690 hc        1 MOL      0.074108
     71 H31        -5.5780   -2.0780   -3.6800 hc        1 MOL      0.074108
     72 N7         -6.4220   -2.0500   -0.0450 n         1 MOL     -0.085488
     73 C23        -6.4220   -3.1150    0.9870 c3        1 MOL     -0.059334
     74 C24        -5.1970   -4.1350    0.8300 c         1 MOL      0.457023
     75 O13        -5.3900   -5.2990    1.2040 o         1 MOL     -0.546113
     76 H32        -6.3080   -1.1070    0.3090 hn        1 MOL      0.110869
     77 H33        -7.3470   -3.6830    0.9120 h1        1 MOL      0.071592
     78 H34        -6.3150   -2.6390    1.9610 h1        1 MOL      0.071592
     79 N8         -4.0750   -3.6510    0.2950 n         1 MOL      0.026419
     80 C25        -2.8340   -4.4600    0.0320 c3        1 MOL     -0.353579
     81 C26        -1.5620   -3.5650    0.1530 c         1 MOL      0.921386
     82 O14        -1.7110   -2.3750    0.2450 o         1 MOL     -0.644071
     83 C27        -2.9000   -5.1220   -1.3670 c3        1 MOL      0.426681
     84 C28        -3.9600   -6.2200   -1.3660 c3        1 MOL     -0.295376
     85 O15        -3.2140   -4.1850   -2.3950 oh        1 MOL     -0.698777
     86 H35        -4.1730   -2.6890    0.0410 hn        1 MOL     -0.132685
     87 H36        -2.6960   -5.1810    0.8390 h1        1 MOL      0.113011
     88 H37        -1.9300   -5.5820   -1.5700 h1        1 MOL     -0.014558
     89 H38        -3.5640   -3.3950   -1.9830 ho        1 MOL      0.546380
     90 H39        -4.0370   -6.7720   -2.3100 hc        1 MOL      0.078818
     91 H40        -3.6690   -7.0100   -0.6810 hc        1 MOL      0.078818
     92 H41        -4.9780   -5.8880   -1.1660 hc        1 MOL      0.078818
     93 N9         -0.3450   -4.1630    0.2330 n         1 MOL     -0.681447
     94 C29         0.8970   -3.5060    0.4700 c3        1 MOL      0.204654
     95 C30         1.8950   -3.5790   -0.6930 c         1 MOL      0.402649
     96 O16         2.2030   -4.6590   -1.2250 o         1 MOL     -0.521679
     97 C31         1.4840   -4.1300    1.7580 c3        1 MOL      0.081541
     98 C32         0.5580   -3.8900    2.9910 c3        1 MOL     -0.176688
     99 C33         2.9190   -3.7170    2.0860 c3        1 MOL     -0.285963
    100 C34         0.4550   -2.4830    3.4670 c3        1 MOL      0.094566
    101 H42        -0.2090   -5.1520    0.1060 hn        1 MOL      0.312409
    102 H43         0.7040   -2.4360    0.5530 h1        1 MOL      0.110666
    103 H44         1.4900   -5.1930    1.4960 hc        1 MOL      0.020236
    104 H45         0.9750   -4.4820    3.8070 hc        1 MOL      0.028655
    105 H46        -0.4510   -4.2190    2.7200 hc        1 MOL      0.028655
    106 H47         2.8710   -2.6470    2.3090 hc        1 MOL      0.074541
    107 H48         3.1870   -4.1970    3.0300 hc        1 MOL      0.074541
    108 H49         3.6430   -3.9710    1.3130 hc        1 MOL      0.074541
    109 H50         0.5380   -1.7380    2.6880 hc        1 MOL      0.013703
    110 H51        -0.4720   -2.3630    4.0290 hc        1 MOL      0.013703
    111 H52         1.2530   -2.2850    4.1850 hc        1 MOL      0.013703
    112 N10         2.5480   -2.4050   -0.9570 n         1 MOL     -0.010824
    113 C35         3.6980   -2.3160   -1.8750 c3        1 MOL     -0.026793
    114 C36         5.0200   -2.1800   -1.1110 c         1 MOL      0.509885
    115 O17         5.0230   -1.9120    0.0720 o         1 MOL     -0.355499
    116 C37         3.6230   -1.1020   -2.8010 c3        1 MOL      0.408780
    117 C38         2.3680   -1.2720   -3.6320 c3        1 MOL     -0.608018
    118 O18         3.4070    0.1370   -2.1060 oh        1 MOL     -0.681035
    119 H53         2.2220   -1.5860   -0.4540 hn        1 MOL     -0.263731
    120 H54         3.7310   -3.2370   -2.4680 h1        1 MOL      0.068740
    121 H55         4.4390   -1.0270   -3.5120 h1        1 MOL      0.004874
    122 H56         2.5110    0.1400   -1.7460 ho        1 MOL      0.419326
    123 H57         2.2100   -0.3590   -4.2060 hc        1 MOL      0.165428
    124 H58         2.3530   -2.2260   -4.1600 hc        1 MOL      0.165428
    125 H59         1.5020   -1.3470   -2.9930 hc        1 MOL      0.165428
    126 N11         6.1920   -2.3030   -1.7510 n         1 MOL     -0.488083
    127 C39         7.5300   -2.1760   -1.1310 c3        1 MOL     -0.005549
    128 C40         7.6540   -0.9870   -0.2240 c         1 MOL      0.206062
    129 O19         8.2180   -1.0970    0.8740 o         1 MOL     -0.491555
    130 C41         8.6050   -2.1410   -2.1540 c3        1 MOL      0.403023
    131 C42         9.9360   -2.4000   -1.4850 c3        1 MOL     -0.324453
    132 O20         8.4380   -3.1210   -3.1980 oh        1 MOL     -0.606822
    133 H60         6.1690   -2.3530   -2.7570 hn        1 MOL      0.215010
    134 H61         7.7390   -3.0510   -0.5260 h1        1 MOL      0.144837
    135 H62         8.6780   -1.1390   -2.5730 h1        1 MOL     -0.054315
    136 H63         7.5090   -3.1410   -3.4410 ho        1 MOL      0.388213
    137 H64        10.7160   -2.4470   -2.2520 hc        1 MOL      0.106209
    138 H65        10.3500   -1.6100   -0.8650 hc        1 MOL      0.106209
    139 H66         9.8890   -3.3500   -0.9440 hc        1 MOL      0.106209
    140 N12         7.1330    0.1780   -0.5350 n         1 MOL      0.013136
    141 C43         7.2050    1.4550    0.1120 c3        1 MOL     -0.159936
    142 C44         6.0740    1.6430    1.1860 c         1 MOL      0.439991
    143 O21         6.1440    2.5320    2.0070 o         1 MOL     -0.503752
    144 C45         7.2890    2.4390   -1.0540 c3        1 MOL     -0.112883
    145 C46         7.9890    3.7440   -0.6340 c3        1 MOL      0.004502
    146 C47         8.2950    4.6930   -1.8280 c3        1 MOL     -0.046121
    147 C48         7.1060    5.1300   -2.7370 c3        1 MOL      0.077642
    148 N13         6.7470    4.1140   -3.7670 n4        1 MOL     -0.476133
    149 H67         6.7470    0.2480   -1.4670 hn        1 MOL      0.122903
    150 H68         8.1450    1.4570    0.6780 h1        1 MOL      0.157285
    151 H69         6.3310    2.8550   -1.3430 hc        1 MOL      0.042517
    152 H70         7.8150    2.1160   -1.9490 hc        1 MOL      0.042517
    153 H71         8.9310    3.5860   -0.1120 hc        1 MOL      0.049747
    154 H72         7.3940    4.2190    0.1410 hc        1 MOL      0.049747
    155 H73         9.1480    4.3860   -2.4340 hc        1 MOL      0.047614
    156 H74         8.6000    5.6700   -1.4370 hc        1 MOL      0.047614
    157 H75         7.2840    6.0670   -3.2530 hx        1 MOL      0.076176
    158 H76         6.2460    5.2050   -2.0600 hx        1 MOL      0.076176
    159 H77         5.9420    3.6030   -3.4330 hn        1 MOL      0.357931
    160 H78         6.3390    4.6050   -4.5480 hn        1 MOL      0.357931
    161 H79         7.5720    3.6490   -4.1170 hn        1 MOL      0.357931
    162 N14         5.0730    0.7640    1.2080 n         1 MOL     -0.167306
    163 C49         4.2190    0.6960    2.3630 c3        1 MOL     -0.179931
    164 C50         4.7800   -0.3050    3.3960 c         1 MOL      0.469993
    165 O22         4.4240   -0.1840    4.6140 o         1 MOL     -0.546219
    166 C51         2.8310    0.3200    1.8310 c3        1 MOL      0.269715
    167 C52         1.9700    1.4110    1.0380 c3        1 MOL      0.018580
    168 C53         0.8220    0.7710    0.2850 c         1 MOL      0.594587
    169 O23         0.9500    0.0210   -0.7510 o         1 MOL     -0.671337
    170 O24        -0.3460    0.9680    0.6840 o         1 MOL     -0.671337
    171 H80         4.9840    0.0030    0.5550 hn        1 MOL      0.076324
    172 H81         4.1510    1.6390    2.9050 h1        1 MOL      0.121175
    173 H82         2.2350    0.0190    2.6920 hc        1 MOL     -0.008959
    174 H83         3.0280   -0.5870    1.2660 hc        1 MOL     -0.008959
    175 H84         2.6840    1.8180    0.3270 hc        1 MOL     -0.028105
    176 H85         1.6480    2.2520    1.6610 hc        1 MOL     -0.028105
    177 N15         5.5070   -1.2990    3.0070 n         1 MOL     -0.141238
    178 C54         5.8840   -2.3330    3.8660 c3        1 MOL     -0.278162
    179 H86         5.1670   -2.4050    4.6840 h1        1 MOL      0.107618
    180 H87         5.9030   -3.2740    3.3170 h1        1 MOL      0.107618
    181 H88         6.8760   -2.1270    4.2700 h1        1 MOL      0.107618
    182 H89         5.8430   -1.3840    2.0510 hn        1 MOL      0.241899
    183 Ca1        -1.6140   -0.1590   -1.3570 Ca        1 MOL      1.763466
    184 O25        -0.5720    0.5630   -3.7420 oh        1 MOL     -0.900665
    185 H90        -0.0690    0.6510   -4.5510 ho        1 MOL      0.418724
    186 H91        -0.9800    1.4180   -3.6080 ho        1 MOL      0.418724
    187 O26        -1.0240   -2.5270   -2.8300 oh        1 MOL     -0.900665
    188 H92        -0.8320   -2.1690   -3.6920 ho        1 MOL      0.418724
    189 H93        -1.6010   -3.2670   -3.0030 ho        1 MOL      0.418724
@<TRIPOS>BOND
     1    1    2 1   
     2    1    4 1   
     3    1    5 1   
     4    1    6 1   
     5    2    3 2   
     6    2    7 1   
     7    7    8 1   
     8    7   15 1   
     9    8    9 1   
    10    8   11 1   
    11    8   16 1   
    12    9   10 2   
    13    9   19 1   
    14   11   12 1   
    15   11   17 1   
    16   11   18 1   
    17   12   13 1   
    18   12   14 1   
    19   19   20 1   
    20   19   28 1   
    21   20   21 1   
    22   20   23 1   
    23   20   29 1   
    24   21   22 2   
    25   21   41 1   
    26   23   24 1   
    27   23   30 1   
    28   23   31 1   
    29   24   25 1   
    30   24   32 1   
    31   24   33 1   
    32   25   26 1   
    33   25   34 1   
    34   25   35 1   
    35   26   27 1   
    36   26   36 1   
    37   26   37 1   
    38   27   38 1   
    39   27   39 1   
    40   27   40 1   
    41   41   42 1   
    42   41   49 1   
    43   42   43 1   
    44   42   45 1   
    45   42   50 1   
    46   43   44 2   
    47   43   53 1   
    48   45   46 1   
    49   45   51 1   
    50   45   52 1   
    51   46   47 1   
    52   46   48 1   
    53   53   54 1   
    54   53   57 1   
    55   54   55 1   
    56   54   58 1   
    57   54   59 1   
    58   55   56 2   
    59   55   60 1   
    60   60   61 1   
    61   60   68 1   
    62   61   62 1   
    63   61   64 1   
    64   61   69 1   
    65   62   63 2   
    66   62   72 1   
    67   64   65 1   
    68   64   70 1   
    69   64   71 1   
    70   65   66 1   
    71   65   67 1   
    72   72   73 1   
    73   72   76 1   
    74   73   74 1   
    75   73   77 1   
    76   73   78 1   
    77   74   75 2   
    78   74   79 1   
    79   79   80 1   
    80   79   86 1   
    81   80   81 1   
    82   80   83 1   
    83   80   87 1   
    84   81   82 2   
    85   81   93 1   
    86   83   84 1   
    87   83   85 1   
    88   83   88 1   
    89   84   90 1   
    90   84   91 1   
    91   84   92 1   
    92   85   89 1   
    93   93   94 1   
    94   93  101 1   
    95   94   95 1   
    96   94   97 1   
    97   94  102 1   
    98   95   96 2   
    99   95  112 1   
   100   97   98 1   
   101   97   99 1   
   102   97  103 1   
   103   98  100 1   
   104   98  104 1   
   105   98  105 1   
   106   99  106 1   
   107   99  107 1   
   108   99  108 1   
   109  100  109 1   
   110  100  110 1   
   111  100  111 1   
   112  112  113 1   
   113  112  119 1   
   114  113  114 1   
   115  113  116 1   
   116  113  120 1   
   117  114  115 2   
   118  114  126 1   
   119  116  117 1   
   120  116  118 1   
   121  116  121 1   
   122  117  123 1   
   123  117  124 1   
   124  117  125 1   
   125  118  122 1   
   126  126  127 1   
   127  126  133 1   
   128  127  128 1   
   129  127  130 1   
   130  127  134 1   
   131  128  129 2   
   132  128  140 1   
   133  130  131 1   
   134  130  132 1   
   135  130  135 1   
   136  131  137 1   
   137  131  138 1   
   138  131  139 1   
   139  132  136 1   
   140  140  141 1   
   141  140  149 1   
   142  141  142 1   
   143  141  144 1   
   144  141  150 1   
   145  142  143 2   
   146  142  162 1   
   147  144  145 1   
   148  144  151 1   
   149  144  152 1   
   150  145  146 1   
   151  145  153 1   
   152  145  154 1   
   153  146  147 1   
   154  146  155 1   
   155  146  156 1   
   156  147  148 1   
   157  147  157 1   
   158  147  158 1   
   159  148  159 1   
   160  148  160 1   
   161  148  161 1   
   162  162  163 1   
   163  162  171 1   
   164  163  164 1   
   165  163  166 1   
   166  163  172 1   
   167  164  165 2   
   168  164  177 1   
   169  166  167 1   
   170  166  173 1   
   171  166  174 1   
   172  167  168 1   
   173  167  175 1   
   174  167  176 1   
   175  168  169 1   
   176  168  170 1   
   177  177  178 1   
   178  177  182 1   
   179  178  179 1   
   180  178  180 1   
   181  178  181 1   
   182  184  185 1   
   183  184  186 1   
   184  187  188 1   
   185  187  189 1   
@<TRIPOS>SUBSTRUCTURE
     1 MOL         1 TEMP              0 ****  ****    0 ROOT
