@<TRIPOS>MOLECULE
MOL
  175   173     1     0     0
SMALL
resp


@<TRIPOS>ATOM
      1 C1          0.5740    3.5490    5.8290 c3        1 MOL     -0.501005
      2 C2          0.0830    3.5350    4.3890 c         1 MOL      0.759343
      3 O1          0.8430    3.4410    3.4980 o         1 MOL     -0.533230
      4 H1          1.4640    4.1720    5.9020 hc        1 MOL      0.124182
      5 H2         -0.2060    3.9530    6.4750 hc        1 MOL      0.124182
      6 H3          0.8150    2.5330    6.1410 hc        1 MOL      0.124182
      7 N1         -1.2400    3.7150    4.1490 n         1 MOL     -0.641196
      8 C3         -1.8330    3.4450    2.8490 c3        1 MOL      0.037901
      9 C4         -1.6650    4.6500    1.8250 c         1 MOL      0.617413
     10 O2         -1.9000    5.8260    2.1210 o         1 MOL     -0.575750
     11 C5         -3.3520    3.1910    3.1080 c3        1 MOL     -0.425654
     12 C6         -4.1570    2.7400    1.8720 c         1 MOL      0.803533
     13 O3         -3.5730    2.3340    0.8460 o         1 MOL     -0.670675
     14 O4         -5.3850    2.6530    1.9730 o         1 MOL     -0.670675
     15 H4         -1.8890    3.7900    4.9210 hn        1 MOL      0.341180
     16 H5         -1.3390    2.5820    2.4020 h1        1 MOL      0.126520
     17 H6         -3.7360    4.1480    3.4650 hc        1 MOL      0.104060
     18 H7         -3.4730    2.5030    3.9300 hc        1 MOL      0.104060
     19 N2         -1.4490    4.3290    0.5270 n         1 MOL     -0.452184
     20 C7         -1.4750    5.2960   -0.6250 c3        1 MOL      0.193802
     21 C8         -2.6030    4.9910   -1.6010 c         1 MOL      0.491760
     22 O5         -2.8630    5.8530   -2.4720 o         1 MOL     -0.590259
     23 C9         -0.0850    5.1830   -1.3110 c3        1 MOL     -0.275529
     24 H8         -1.3230    3.3630    0.2510 hn        1 MOL      0.291641
     25 H9         -1.5240    6.2970   -0.2160 h1        1 MOL      0.053545
     26 H10         0.1610    4.1450   -1.5000 hc        1 MOL      0.072603
     27 H11        -0.0900    5.7750   -2.2220 hc        1 MOL      0.072603
     28 H12         0.5850    5.4560   -0.4960 hc        1 MOL      0.072603
     29 N3         -3.4220    3.9410   -1.5380 n         1 MOL     -0.429666
     30 C10        -4.2180    3.5580   -2.6880 c3        1 MOL      0.098638
     31 C11        -5.5560    2.8500   -2.3710 c         1 MOL      0.406324
     32 O6         -6.4280    2.6260   -3.2300 o         1 MOL     -0.583026
     33 C12        -3.3880    2.8060   -3.6910 c3        1 MOL     -0.260710
     34 C13        -2.8580    1.4750   -3.2400 c         1 MOL      0.734993
     35 O7         -3.3170    0.8620   -2.2850 o         1 MOL     -0.689978
     36 O8         -1.9080    1.0600   -3.9110 o         1 MOL     -0.689978
     37 H13        -3.1640    3.2730   -0.8190 hn        1 MOL      0.236428
     38 H14        -4.6250    4.4640   -3.1470 h1        1 MOL      0.099630
     39 H15        -2.4440    3.3480   -3.6950 hc        1 MOL      0.075940
     40 H16        -3.7490    2.7790   -4.7150 hc        1 MOL      0.075940
     41 N4         -5.8410    2.5380   -1.1110 n         1 MOL     -0.177726
     42 C14        -7.0800    1.7660   -0.7110 c3        1 MOL     -0.305455
     43 C15        -7.2330    0.2510   -0.9870 c         1 MOL      0.599686
     44 O9         -8.1700   -0.3700   -0.4870 o         1 MOL     -0.632245
     45 H17        -5.1070    2.6390   -0.4270 hn        1 MOL      0.128706
     46 H18        -7.8810    2.1880   -1.3160 h1        1 MOL      0.140285
     47 H19        -7.4090    2.0120    0.2940 h1        1 MOL      0.140285
     48 N5         -6.2970   -0.3030   -1.7340 n         1 MOL     -0.419644
     49 C16        -6.1900   -1.7320   -2.2190 c3        1 MOL      0.036710
     50 C17        -6.3240   -2.8490   -1.1860 c         1 MOL      0.417671
     51 O10        -6.3370   -3.9910   -1.5690 o         1 MOL     -0.537462
     52 C18        -5.1070   -1.8190   -3.2470 c3        1 MOL     -0.132217
     53 C19        -3.7430   -1.9900   -2.6390 c         1 MOL      0.625568
     54 N6         -2.7780   -2.0220   -3.4980 n         1 MOL     -0.741585
     55 O11        -3.5380   -2.0720   -1.4310 o         1 MOL     -0.438279
     56 H20        -5.6040    0.3360   -2.0960 hn        1 MOL      0.309997
     57 H21        -7.1210   -1.8770   -2.7720 h1        1 MOL      0.079160
     58 H22        -5.0910   -0.9110   -3.8420 hc        1 MOL      0.049540
     59 H23        -5.3640   -2.6250   -3.9240 hc        1 MOL      0.049540
     60 H24        -2.8340   -1.9840   -4.5000 hn        1 MOL      0.373766
     61 H25        -1.8510   -1.9330   -3.0950 hn        1 MOL      0.373766
     62 N7         -6.3480   -2.5250    0.0890 n         1 MOL     -0.071066
     63 C20        -6.5180   -3.4740    1.1630 c3        1 MOL     -0.360799
     64 C21        -5.2410   -4.1810    1.6070 c         1 MOL      0.611563
     65 O12        -5.2560   -5.0720    2.4280 o         1 MOL     -0.597961
     66 H26        -6.3600   -1.5380    0.3070 hn        1 MOL      0.231889
     67 H27        -7.2260   -4.1920    0.7500 h1        1 MOL      0.137471
     68 H28        -6.9450   -3.0230    2.0650 h1        1 MOL      0.137471
     69 N8         -4.0880   -3.7650    1.1170 n         1 MOL     -0.162963
     70 C22        -2.7810   -4.4170    1.2550 c3        1 MOL     -0.242147
     71 C23        -1.6200   -3.4340    1.3920 c         1 MOL      0.581135
     72 O13        -1.6790   -2.4190    0.7480 o         1 MOL     -0.446430
     73 C24        -2.5760   -5.3770    0.0940 c3        1 MOL      0.622124
     74 C25        -3.3770   -6.6730    0.0340 c3        1 MOL     -0.538607
     75 O14        -2.6920   -4.8330   -1.1600 oh        1 MOL     -0.538065
     76 H29        -4.0780   -2.9890    0.4670 hn        1 MOL      0.001926
     77 H30        -2.7520   -5.0350    2.1450 h1        1 MOL      0.086130
     78 H31        -1.5380   -5.7210    0.1550 h1        1 MOL     -0.073542
     79 H32        -2.5240   -3.9000   -1.0130 ho        1 MOL      0.236116
     80 H33        -2.8030   -7.4260   -0.5120 hc        1 MOL      0.127457
     81 H34        -3.5720   -6.9910    1.0530 hc        1 MOL      0.127457
     82 H35        -4.2950   -6.3840   -0.4700 hc        1 MOL      0.127457
     83 N9         -0.6250   -3.6340    2.2440 n         1 MOL     -0.548272
     84 C26         0.6290   -2.8730    2.1850 c3        1 MOL     -0.097162
     85 C27         1.3750   -3.1120    0.8540 c         1 MOL      0.620876
     86 O15         1.6880   -4.2960    0.5890 o         1 MOL     -0.602559
     87 C28         1.5050   -3.0250    3.4930 c3        1 MOL      0.022336
     88 C29         0.6410   -2.7810    4.7910 c3        1 MOL      0.177115
     89 C30         2.7060   -2.0830    3.4170 c3        1 MOL     -0.047123
     90 C31         1.3110   -3.1490    6.1110 c3        1 MOL     -0.247897
     91 H36        -0.6890   -4.5390    2.6870 hn        1 MOL      0.307530
     92 H37         0.5010   -1.7860    2.2360 h1        1 MOL      0.139379
     93 H38         2.0290   -3.9740    3.5150 hc        1 MOL      0.013801
     94 H39        -0.2820   -3.3660    4.8200 hc        1 MOL     -0.021340
     95 H40         0.2880   -1.7460    4.8130 hc        1 MOL     -0.021340
     96 H41         3.2840   -2.1340    2.4940 hc        1 MOL     -0.001511
     97 H42         2.3260   -1.0720    3.5380 hc        1 MOL     -0.001511
     98 H43         3.3460   -2.2580    4.2780 hc        1 MOL     -0.001511
     99 H44         1.9920   -2.3540    6.4040 hc        1 MOL      0.051494
    100 H45         0.6220   -3.1400    6.9510 hc        1 MOL      0.051494
    101 H46         1.8840   -4.0650    5.9920 hc        1 MOL      0.051494
    102 N10         1.6620   -2.0710    0.1310 n         1 MOL     -0.134160
    103 C32         2.5520   -2.1290   -1.0410 c3        1 MOL     -0.027999
    104 C33         3.9730   -1.6490   -0.6430 c         1 MOL      0.335651
    105 O16         4.2280   -0.9350    0.2810 o         1 MOL     -0.093117
    106 C34         1.9680   -1.2480   -2.1710 c3        1 MOL     -0.145804
    107 C35         0.5720   -1.6950   -2.5340 c         1 MOL      0.702714
    108 O17        -0.4500   -1.3550   -1.8890 o         1 MOL     -0.675724
    109 O18         0.4710   -2.2510   -3.6570 o         1 MOL     -0.675724
    110 H47         1.2950   -1.1470    0.3110 hn        1 MOL     -0.087012
    111 H48         2.6610   -3.1350   -1.4430 h1        1 MOL      0.074073
    112 H49         2.6190   -1.3730   -3.0430 hc        1 MOL      0.067129
    113 H50         1.9140   -0.2060   -1.8690 hc        1 MOL      0.067129
    114 N11         4.8930   -1.9680   -1.5460 n         1 MOL     -0.600279
    115 C36         6.2930   -1.6260   -1.3910 c3        1 MOL      0.347862
    116 C37         6.5530   -0.1750   -1.0020 c         1 MOL      0.380514
    117 O19         7.2900   -0.0410   -0.0030 o         1 MOL     -0.529423
    118 C38         7.1410   -2.0030   -2.6090 c3        1 MOL     -0.234529
    119 C39         8.6490   -1.7050   -2.3780 ca        1 MOL      0.044766
    120 C40         9.3840   -2.5150   -1.4540 ca        1 MOL     -0.104087
    121 C41         9.3400   -0.6770   -2.9720 ca        1 MOL     -0.104087
    122 C42        10.7670   -2.3720   -1.2630 ca        1 MOL     -0.138850
    123 C43        10.7130   -0.5050   -2.8220 ca        1 MOL     -0.138850
    124 C44        11.4670   -1.3460   -1.9710 ca        1 MOL     -0.112541
    125 H51         4.6130   -2.4480   -2.3850 hn        1 MOL      0.344316
    126 H52         6.6450   -2.1320   -0.5020 h1        1 MOL      0.034050
    127 H53         6.8850   -1.4420   -3.5050 hc        1 MOL      0.076274
    128 H54         7.0190   -3.0700   -2.8270 hc        1 MOL      0.076274
    129 H55         8.9050   -3.3380   -0.9420 ha        1 MOL      0.098272
    130 H56         8.8260    0.0040   -3.6360 ha        1 MOL      0.098272
    131 H57        11.3450   -2.9130   -0.5290 ha        1 MOL      0.113400
    132 H58        11.2220    0.2580   -3.3970 ha        1 MOL      0.113400
    133 H59        12.5200   -1.2260   -1.7960 ha        1 MOL      0.109541
    134 N12         6.0790    0.9190   -1.6910 n         1 MOL      0.001162
    135 C45         6.3440    2.3240   -1.3190 c3        1 MOL     -0.180660
    136 C46         5.5140    2.7240   -0.0960 c         1 MOL      0.474135
    137 O20         5.6280    3.8330    0.4340 o         1 MOL     -0.557147
    138 C47         5.8120    3.1480   -2.5410 c3        1 MOL     -0.072643
    139 C48         4.6400    2.2970   -3.0660 c3        1 MOL      0.047268
    140 C49         5.2380    0.8730   -2.8630 c3        1 MOL     -0.009031
    141 H60         7.4020    2.5400   -1.1720 h1        1 MOL      0.130020
    142 H61         5.3930    4.1030   -2.2500 hc        1 MOL      0.040344
    143 H62         6.5820    3.3140   -3.3000 hc        1 MOL      0.040344
    144 H63         3.7730    2.4750   -2.4300 hc        1 MOL      0.029327
    145 H64         4.3250    2.4700   -4.0930 hc        1 MOL      0.029327
    146 H65         4.4080    0.1730   -2.7480 h1        1 MOL     -0.003646
    147 H66         5.8970    0.5790   -3.6730 h1        1 MOL     -0.003646
    148 N13         4.7530    1.8430    0.4790 n         1 MOL     -0.098457
    149 C50         4.0590    1.9830    1.7510 c3        1 MOL     -0.058903
    150 C51         4.8040    1.3230    2.9250 c         1 MOL      0.408463
    151 O21         4.9570    1.9170    3.9900 o         1 MOL     -0.541626
    152 C52         2.6250    1.4680    1.6870 c3        1 MOL      0.107128
    153 C53         1.8490    1.8550    0.4130 c3        1 MOL      0.043295
    154 C54         0.4440    1.2510    0.4630 c         1 MOL      0.321291
    155 O22        -0.3800    1.6990   -0.3940 o         1 MOL     -0.617599
    156 O23         0.0880    0.2410    1.1270 o         1 MOL     -0.617599
    157 H67         4.6430    0.9140    0.0950 hn        1 MOL     -0.081243
    158 H68         3.8800    3.0360    1.9740 h1        1 MOL      0.085033
    159 H69         2.1630    1.8550    2.5940 hc        1 MOL      0.010729
    160 H70         2.6310    0.3740    1.6680 hc        1 MOL      0.010729
    161 H71         2.3730    1.4050   -0.4370 hc        1 MOL      0.048038
    162 H72         1.9240    2.9400    0.3170 hc        1 MOL      0.048038
    163 N14         5.3550    0.1220    2.7310 n         1 MOL     -0.047559
    164 C55         6.0880   -0.7150    3.7050 c3        1 MOL     -0.195493
    165 H73         6.9190   -0.1440    4.1190 h1        1 MOL      0.077538
    166 H74         5.4150   -1.0110    4.5100 h1        1 MOL      0.077538
    167 H75         6.4710   -1.6040    3.2050 h1        1 MOL      0.077538
    168 H76         5.2600   -0.3710    1.8520 hn        1 MOL      0.052830
    169 Ca1        -2.1430   -0.0910   -0.2570 Ca        1 MOL      1.667475
    170 O24        -4.7040   -0.0430    0.9390 oh        1 MOL     -0.842753
    171 H77        -4.4500    0.8760    1.0250 ho        1 MOL      0.406561
    172 H78        -5.3900   -0.1620    1.5970 ho        1 MOL      0.406561
    173 O25        -2.1520    0.0640    2.5590 oh        1 MOL     -0.842753
    174 H79        -1.2020    0.2140    2.6090 ho        1 MOL      0.406561
    175 H80        -2.4900    0.3160    3.4140 ho        1 MOL      0.406561
@<TRIPOS>BOND
     1    1    2 1   
     2    1    4 1   
     3    1    5 1   
     4    1    6 1   
     5    2    3 2   
     6    2    7 1   
     7    7    8 1   
     8    7   15 1   
     9    8    9 1   
    10    8   11 1   
    11    8   16 1   
    12    9   10 2   
    13    9   19 1   
    14   11   12 1   
    15   11   17 1   
    16   11   18 1   
    17   12   13 1   
    18   12   14 1   
    19   19   20 1   
    20   19   24 1   
    21   20   21 1   
    22   20   23 1   
    23   20   25 1   
    24   21   22 2   
    25   21   29 1   
    26   23   26 1   
    27   23   27 1   
    28   23   28 1   
    29   29   30 1   
    30   29   37 1   
    31   30   31 1   
    32   30   33 1   
    33   30   38 1   
    34   31   32 2   
    35   31   41 1   
    36   33   34 1   
    37   33   39 1   
    38   33   40 1   
    39   34   35 1   
    40   34   36 1   
    41   41   42 1   
    42   41   45 1   
    43   42   43 1   
    44   42   46 1   
    45   42   47 1   
    46   43   44 2   
    47   43   48 1   
    48   48   49 1   
    49   48   56 1   
    50   49   50 1   
    51   49   52 1   
    52   49   57 1   
    53   50   51 2   
    54   50   62 1   
    55   52   53 1   
    56   52   58 1   
    57   52   59 1   
    58   53   54 1   
    59   53   55 2   
    60   54   60 1   
    61   54   61 1   
    62   62   63 1   
    63   62   66 1   
    64   63   64 1   
    65   63   67 1   
    66   63   68 1   
    67   64   65 2   
    68   64   69 1   
    69   69   70 1   
    70   69   76 1   
    71   70   71 1   
    72   70   73 1   
    73   70   77 1   
    74   71   72 2   
    75   71   83 1   
    76   73   74 1   
    77   73   75 1   
    78   73   78 1   
    79   74   80 1   
    80   74   81 1   
    81   74   82 1   
    82   75   79 1   
    83   83   84 1   
    84   83   91 1   
    85   84   85 1   
    86   84   87 1   
    87   84   92 1   
    88   85   86 2   
    89   85  102 1   
    90   87   88 1   
    91   87   89 1   
    92   87   93 1   
    93   88   90 1   
    94   88   94 1   
    95   88   95 1   
    96   89   96 1   
    97   89   97 1   
    98   89   98 1   
    99   90   99 1   
   100   90  100 1   
   101   90  101 1   
   102  102  103 1   
   103  102  110 1   
   104  103  104 1   
   105  103  106 1   
   106  103  111 1   
   107  104  105 2   
   108  104  114 1   
   109  106  107 1   
   110  106  112 1   
   111  106  113 1   
   112  107  108 1   
   113  107  109 1   
   114  114  115 1   
   115  114  125 1   
   116  115  116 1   
   117  115  118 1   
   118  115  126 1   
   119  116  117 2   
   120  116  134 1   
   121  118  119 1   
   122  118  127 1   
   123  118  128 1   
   124  119  120 ar  
   125  119  121 ar  
   126  120  122 ar  
   127  120  129 1   
   128  121  123 ar  
   129  121  130 1   
   130  122  124 ar  
   131  122  131 1   
   132  123  124 ar  
   133  123  132 1   
   134  124  133 1   
   135  134  135 1   
   136  134  140 1   
   137  135  136 1   
   138  135  138 1   
   139  135  141 1   
   140  136  137 2   
   141  136  148 1   
   142  138  139 1   
   143  138  142 1   
   144  138  143 1   
   145  139  140 1   
   146  139  144 1   
   147  139  145 1   
   148  140  146 1   
   149  140  147 1   
   150  148  149 1   
   151  148  157 1   
   152  149  150 1   
   153  149  152 1   
   154  149  158 1   
   155  150  151 2   
   156  150  163 1   
   157  152  153 1   
   158  152  159 1   
   159  152  160 1   
   160  153  154 1   
   161  153  161 1   
   162  153  162 1   
   163  154  155 1   
   164  154  156 1   
   165  163  164 1   
   166  163  168 1   
   167  164  165 1   
   168  164  166 1   
   169  164  167 1   
   170  170  171 1   
   171  170  172 1   
   172  173  174 1   
   173  173  175 1   
@<TRIPOS>SUBSTRUCTURE
     1 MOL         1 TEMP              0 ****  ****    0 ROOT
