@<TRIPOS>MOLECULE
MOL
  189   185     1     0     0
SMALL
resp


@<TRIPOS>ATOM
      1 C1          0.0190    0.6960    6.2540 c3        1 MOL     -0.386640
      2 C2         -0.4110    0.7800    4.7590 c         1 MOL      0.739971
      3 O1          0.3090    1.2710    3.9260 o         1 MOL     -0.620011
      4 H1         -0.7330    0.1450    6.8170 hc        1 MOL      0.099595
      5 H2          0.9770    0.1810    6.3290 hc        1 MOL      0.099595
      6 H3          0.1140    1.7020    6.6630 hc        1 MOL      0.099595
      7 N1         -1.5080    0.1750    4.3910 n         1 MOL     -0.580886
      8 C3         -2.0830    0.4770    3.0310 c3        1 MOL     -0.002758
      9 C4         -2.5840    1.9290    2.9090 c         1 MOL      0.518747
     10 O2         -3.5440    2.4360    3.5580 o         1 MOL     -0.548055
     11 C5         -3.1550   -0.5560    2.6080 c3        1 MOL      0.008182
     12 C6         -3.8550   -0.1520    1.3380 c         1 MOL      0.601927
     13 O3         -5.1270   -0.0630    1.3380 o         1 MOL     -0.667325
     14 O4         -3.2360    0.1240    0.3140 o         1 MOL     -0.667325
     15 H4         -1.9660   -0.4580    5.0360 hn        1 MOL      0.339470
     16 H5         -1.2840    0.3840    2.2940 h1        1 MOL      0.043577
     17 H6         -3.9250   -0.7100    3.3630 hc        1 MOL      0.007369
     18 H7         -2.6460   -1.5030    2.4170 hc        1 MOL      0.007369
     19 N2         -1.9970    2.6500    1.9110 n         1 MOL     -0.250439
     20 C7         -2.2060    4.1650    1.7280 c3        1 MOL     -0.048183
     21 C8         -3.2530    4.4650    0.6200 c         1 MOL      0.575465
     22 O5         -3.9280    5.4530    0.6710 o         1 MOL     -0.599079
     23 C9         -0.8270    4.8320    1.4390 c3        1 MOL     -0.025896
     24 C10        -0.7770    6.2450    0.8160 c3        1 MOL     -0.143066
     25 C11        -1.4160    7.2830    1.8300 c3        1 MOL      0.083426
     26 C12        -1.2860    8.7190    1.2840 c3        1 MOL     -0.069648
     27 N3         -2.3090    8.9670    0.1800 n4        1 MOL     -0.349275
     28 H8         -1.2870    2.1580    1.3920 hn        1 MOL      0.157629
     29 H9         -2.5720    4.5390    2.6870 h1        1 MOL      0.076701
     30 H10        -0.3590    4.1270    0.7560 hc        1 MOL      0.072275
     31 H11        -0.1340    4.9060    2.2750 hc        1 MOL      0.072275
     32 H12        -1.2360    6.3730   -0.1620 hc        1 MOL      0.024285
     33 H13         0.2870    6.4470    0.7440 hc        1 MOL      0.024285
     34 H14        -0.9290    7.2160    2.8060 hc        1 MOL      0.037395
     35 H15        -2.4250    6.9260    2.0340 hc        1 MOL      0.037395
     36 H16        -0.2860    8.9360    0.8880 hx        1 MOL      0.095636
     37 H17        -1.6120    9.4490    2.0110 hx        1 MOL      0.095636
     38 H18        -3.2310    8.9240    0.5970 hn        1 MOL      0.328698
     39 H19        -2.0840    9.8390   -0.2850 hn        1 MOL      0.328698
     40 H20        -2.3440    8.3080   -0.5840 hn        1 MOL      0.328698
     41 N4         -3.3920    3.5890   -0.4100 n         1 MOL     -0.409131
     42 C13        -4.2680    3.7870   -1.5600 c3        1 MOL     -0.018534
     43 C14        -5.5550    2.8940   -1.5520 c         1 MOL      0.506635
     44 O6         -6.2120    2.6970   -2.5830 o         1 MOL     -0.518888
     45 C15        -3.5160    3.9070   -2.9180 c3        1 MOL     -0.072882
     46 C16        -2.3750    2.8860   -3.0840 c         1 MOL      0.754071
     47 O7         -2.1960    1.8630   -2.3710 o         1 MOL     -0.719372
     48 O8         -1.6140    3.1500   -4.0430 o         1 MOL     -0.719372
     49 H21        -2.6600    2.8780   -0.4130 hn        1 MOL      0.243016
     50 H22        -4.7800    4.7440   -1.4270 h1        1 MOL      0.067462
     51 H23        -3.1510    4.9260   -3.0570 hc        1 MOL      0.021891
     52 H24        -4.2690    3.7890   -3.7100 hc        1 MOL      0.021891
     53 N5         -5.9830    2.3610   -0.3810 n         1 MOL     -0.321399
     54 C17        -7.3000    1.8450    0.0140 c3        1 MOL     -0.357889
     55 C18        -7.6140    0.4600   -0.5220 c         1 MOL      0.596796
     56 O9         -8.8040   -0.0180   -0.4940 o         1 MOL     -0.603290
     57 H25        -5.3340    2.3990    0.3950 hn        1 MOL      0.320256
     58 H26        -8.1060    2.4880   -0.3290 h1        1 MOL      0.163355
     59 H27        -7.3000    1.7370    1.1010 h1        1 MOL      0.163355
     60 N6         -6.6420   -0.3160   -1.0850 n         1 MOL     -0.234720
     61 C19        -6.8480   -1.5660   -1.7460 c3        1 MOL     -0.043233
     62 C20        -6.7300   -2.7700   -0.8160 c         1 MOL      0.452295
     63 O10        -7.0140   -3.9170   -1.1960 o         1 MOL     -0.551956
     64 C21        -5.9910   -1.6970   -3.0100 c3        1 MOL     -0.167586
     65 C22        -4.5060   -1.3670   -2.5950 c         1 MOL      0.625283
     66 O11        -3.8550   -0.3500   -2.9200 o         1 MOL     -0.666451
     67 O12        -3.9210   -2.2450   -1.8740 o         1 MOL     -0.666451
     68 H28        -5.6700   -0.0400   -0.9990 hn        1 MOL      0.251628
     69 H29        -7.8850   -1.6740   -2.0680 h1        1 MOL      0.115632
     70 H30        -6.3320   -0.9880   -3.7630 hc        1 MOL      0.065041
     71 H31        -6.0990   -2.7390   -3.3240 hc        1 MOL      0.065041
     72 N7         -6.2780   -2.4740    0.4190 n         1 MOL     -0.219567
     73 C23        -5.9380   -3.4180    1.4800 c3        1 MOL     -0.147911
     74 C24        -4.7930   -4.3990    1.3500 c         1 MOL      0.548499
     75 O13        -4.8570   -5.3910    2.0090 o         1 MOL     -0.551251
     76 H32        -6.0540   -1.5120    0.6280 hn        1 MOL      0.195687
     77 H33        -6.8730   -3.9460    1.6540 h1        1 MOL      0.089877
     78 H34        -5.7590   -2.8760    2.3970 h1        1 MOL      0.089877
     79 N8         -3.7230   -4.0770    0.5490 n         1 MOL     -0.340896
     80 C25        -2.5420   -4.9100    0.2240 c3        1 MOL     -0.097896
     81 C26        -1.3620   -3.9120    0.2080 c         1 MOL      0.553571
     82 O14        -1.5260   -2.7350   -0.1690 o         1 MOL     -0.607699
     83 C27        -2.6980   -5.5760   -1.1380 c3        1 MOL      0.492101
     84 C28        -3.9770   -6.3470   -1.3260 c3        1 MOL     -0.570761
     85 O15        -2.8100   -4.6110   -2.1360 oh        1 MOL     -0.637224
     86 H35        -3.8050   -3.1910    0.0800 hn        1 MOL      0.261093
     87 H36        -2.3140   -5.7240    0.9140 h1        1 MOL      0.066098
     88 H37        -1.8280   -6.2290   -1.1940 h1        1 MOL     -0.024302
     89 H38        -3.5030   -3.9720   -1.9280 ho        1 MOL      0.378481
     90 H39        -4.0980   -6.7130   -2.3390 hc        1 MOL      0.142877
     91 H40        -4.0810   -7.1460   -0.5900 hc        1 MOL      0.142877
     92 H41        -4.8840   -5.7820   -1.1190 hc        1 MOL      0.142877
     93 N9         -0.1810   -4.4150    0.4410 n         1 MOL     -0.469369
     94 C29         1.0450   -3.6120    0.8330 c3        1 MOL      0.046256
     95 C30         2.1290   -3.8360   -0.2350 c         1 MOL      0.449744
     96 O16         2.5140   -4.9470   -0.5850 o         1 MOL     -0.542161
     97 C31         1.3840   -3.8790    2.3410 c3        1 MOL      0.098203
     98 C32         0.3980   -3.3200    3.3150 c3        1 MOL      0.340008
     99 C33         2.7520   -3.3240    2.6480 c3        1 MOL     -0.382110
    100 C34         0.7220   -3.6900    4.7780 c3        1 MOL     -0.248876
    101 H42        -0.2360   -5.4070    0.6040 hn        1 MOL      0.281498
    102 H43         0.8910   -2.5450    0.6420 h1        1 MOL      0.087992
    103 H44         1.4680   -4.9460    2.5540 hc        1 MOL      0.024505
    104 H45        -0.4730   -3.9450    3.1340 hc        1 MOL     -0.095945
    105 H46         0.1590   -2.2840    3.0750 hc        1 MOL     -0.095945
    106 H47         2.8780   -2.2370    2.5610 hc        1 MOL      0.050175
    107 H48         3.1210   -3.4070    3.6680 hc        1 MOL      0.050175
    108 H49         3.5110   -3.6850    1.9560 hc        1 MOL      0.050175
    109 H50        -0.1210   -3.3810    5.4080 hc        1 MOL      0.057796
    110 H51         0.8840   -4.7760    4.7540 hc        1 MOL      0.057796
    111 H52         1.6310   -3.2800    5.1980 hc        1 MOL      0.057796
    112 N10         2.7070   -2.7570   -0.7950 n         1 MOL     -0.025756
    113 C35         3.8370   -2.7440   -1.7180 c3        1 MOL     -0.070829
    114 C36         5.1780   -2.4220   -1.0870 c         1 MOL      0.372517
    115 O17         5.1900   -1.7890   -0.0170 o         1 MOL     -0.266847
    116 C37         3.6710   -1.7630   -2.9190 c3        1 MOL      0.238751
    117 C38         2.5510   -2.2660   -3.8790 c3        1 MOL     -0.552758
    118 O18         3.1490   -0.4810   -2.5400 oh        1 MOL     -0.610354
    119 H53         2.2640   -1.8760   -0.5720 hn        1 MOL      0.067224
    120 H54         3.8990   -3.7670   -2.0870 h1        1 MOL      0.057010
    121 H55         4.6320   -1.6790   -3.4260 h1        1 MOL      0.052183
    122 H56         2.2440   -0.6050   -2.2480 ho        1 MOL      0.459634
    123 H57         2.3640   -1.6540   -4.7680 hc        1 MOL      0.154707
    124 H58         2.8360   -3.2510   -4.2490 hc        1 MOL      0.154707
    125 H59         1.6360   -2.4090   -3.3000 hc        1 MOL      0.154707
    126 N11         6.3550   -2.5410   -1.7320 n         1 MOL     -0.275354
    127 C39         7.6130   -2.1790   -0.9780 c3        1 MOL     -0.373125
    128 C40         7.7170   -0.7580   -0.3980 c         1 MOL      0.510175
    129 O19         8.2800   -0.6900    0.7240 o         1 MOL     -0.514420
    130 C41         8.9160   -2.2910   -1.7770 c3        1 MOL      0.389130
    131 C42         9.2150   -3.7450   -2.0350 c3        1 MOL     -0.422451
    132 O20         8.7530   -1.6140   -3.0440 oh        1 MOL     -0.687691
    133 H60         6.4290   -2.9180   -2.6720 hn        1 MOL      0.278985
    134 H61         7.7410   -2.9160   -0.1770 h1        1 MOL      0.199310
    135 H62         9.7470   -1.8350   -1.2290 h1        1 MOL      0.054446
    136 H63         9.4320   -1.7750   -3.6990 ho        1 MOL      0.432674
    137 H64         9.2180   -4.3440   -1.1310 hc        1 MOL      0.114193
    138 H65         8.5360   -4.0140   -2.8440 hc        1 MOL      0.114193
    139 H66        10.2170   -3.8330   -2.4620 hc        1 MOL      0.114193
    140 N12         7.1510    0.2730   -0.9320 n         1 MOL     -0.372435
    141 C43         7.0310    1.6400   -0.3180 c3        1 MOL     -0.024782
    142 C44         6.1460    1.5340    0.9180 c         1 MOL      0.212693
    143 O21         6.5190    2.0840    1.9370 o         1 MOL     -0.502755
    144 C45         6.4390    2.4940   -1.4160 c3        1 MOL     -0.126985
    145 C46         6.3990    3.9630   -1.0490 c3        1 MOL      0.028185
    146 C47         5.8930    4.8160   -2.1980 c3        1 MOL     -0.074771
    147 C48         6.1480    6.3300   -1.9750 c3        1 MOL      0.216093
    148 N13         5.3130    7.2060   -2.8100 n4        1 MOL     -0.444119
    149 H67         6.5870    0.0770   -1.7420 hn        1 MOL      0.286275
    150 H68         8.0180    2.0270   -0.0470 h1        1 MOL      0.155940
    151 H69         5.5070    2.0400   -1.7580 hc        1 MOL      0.049553
    152 H70         7.1560    2.4000   -2.2350 hc        1 MOL      0.049553
    153 H71         7.4020    4.2760   -0.7640 hc        1 MOL      0.039463
    154 H72         5.6880    4.1850   -0.2530 hc        1 MOL      0.039463
    155 H73         4.8200    4.6730   -2.1290 hc        1 MOL      0.039554
    156 H74         6.3710    4.5930   -3.1540 hc        1 MOL      0.039554
    157 H75         7.2080    6.5290   -2.1220 hx        1 MOL      0.030524
    158 H76         5.9420    6.5390   -0.9230 hx        1 MOL      0.030524
    159 H77         5.5280    7.1640   -3.7970 hn        1 MOL      0.329708
    160 H78         4.3660    6.8880   -2.6610 hn        1 MOL      0.329708
    161 H79         5.4460    8.1770   -2.5560 hn        1 MOL      0.329708
    162 N14         5.0320    0.8490    0.9200 n         1 MOL      0.004616
    163 C49         4.1000    0.7530    2.0510 c3        1 MOL     -0.177289
    164 C50         4.6860   -0.1550    3.1120 c         1 MOL      0.451485
    165 O22         4.3980   -0.0140    4.2990 o         1 MOL     -0.553282
    166 C51         2.7500    0.2520    1.4630 c3        1 MOL      0.151054
    167 C52         2.0180    1.3390    0.5930 c3        1 MOL     -0.606503
    168 C53         0.7780    0.6890    0.0230 c         1 MOL      1.002810
    169 O23        -0.3120    1.2860   -0.0020 o         1 MOL     -0.749681
    170 O24         0.8280   -0.4560   -0.4550 o         1 MOL     -0.749681
    171 H80         4.7200    0.3540    0.1070 hn        1 MOL      0.193669
    172 H81         3.9550    1.7470    2.4810 h1        1 MOL      0.128631
    173 H82         2.0390    0.0820    2.2710 hc        1 MOL      0.079405
    174 H83         2.9080   -0.6730    0.9040 hc        1 MOL      0.079405
    175 H84         2.5220    1.6730   -0.3200 hc        1 MOL      0.114662
    176 H85         1.8390    2.1750    1.2750 hc        1 MOL      0.114662
    177 N15         5.5490   -1.1550    2.7340 n         1 MOL      0.088871
    178 C54         6.4500   -1.8490    3.6250 c3        1 MOL     -0.349629
    179 H86         7.4730   -1.7410    3.2640 h1        1 MOL      0.109311
    180 H87         6.3710   -1.4240    4.6250 h1        1 MOL      0.109311
    181 H88         6.1870   -2.9060    3.6570 h1        1 MOL      0.109311
    182 H89         5.7470   -1.3530    1.7570 hn        1 MOL      0.049161
    183 Ca1        -1.6100   -0.4080   -1.4290 Ca        1 MOL      1.711457
    184 O25         0.3470    0.2780   -3.2100 oh        1 MOL     -0.891195
    185 H90         0.0860    1.1110   -3.6160 ho        1 MOL      0.414726
    186 H91         0.4490   -0.3260   -3.9410 ho        1 MOL      0.414726
    187 O26        -1.3800   -2.3960   -3.1860 oh        1 MOL     -0.891195
    188 H92        -2.2940   -2.5670   -2.9370 ho        1 MOL      0.414726
    189 H93        -1.2350   -2.9540   -3.9490 ho        1 MOL      0.414726
@<TRIPOS>BOND
     1    1    2 1   
     2    1    4 1   
     3    1    5 1   
     4    1    6 1   
     5    2    3 2   
     6    2    7 1   
     7    7    8 1   
     8    7   15 1   
     9    8    9 1   
    10    8   11 1   
    11    8   16 1   
    12    9   10 2   
    13    9   19 1   
    14   11   12 1   
    15   11   17 1   
    16   11   18 1   
    17   12   13 1   
    18   12   14 1   
    19   19   20 1   
    20   19   28 1   
    21   20   21 1   
    22   20   23 1   
    23   20   29 1   
    24   21   22 2   
    25   21   41 1   
    26   23   24 1   
    27   23   30 1   
    28   23   31 1   
    29   24   25 1   
    30   24   32 1   
    31   24   33 1   
    32   25   26 1   
    33   25   34 1   
    34   25   35 1   
    35   26   27 1   
    36   26   36 1   
    37   26   37 1   
    38   27   38 1   
    39   27   39 1   
    40   27   40 1   
    41   41   42 1   
    42   41   49 1   
    43   42   43 1   
    44   42   45 1   
    45   42   50 1   
    46   43   44 2   
    47   43   53 1   
    48   45   46 1   
    49   45   51 1   
    50   45   52 1   
    51   46   47 1   
    52   46   48 1   
    53   53   54 1   
    54   53   57 1   
    55   54   55 1   
    56   54   58 1   
    57   54   59 1   
    58   55   56 2   
    59   55   60 1   
    60   60   61 1   
    61   60   68 1   
    62   61   62 1   
    63   61   64 1   
    64   61   69 1   
    65   62   63 2   
    66   62   72 1   
    67   64   65 1   
    68   64   70 1   
    69   64   71 1   
    70   65   66 1   
    71   65   67 1   
    72   72   73 1   
    73   72   76 1   
    74   73   74 1   
    75   73   77 1   
    76   73   78 1   
    77   74   75 2   
    78   74   79 1   
    79   79   80 1   
    80   79   86 1   
    81   80   81 1   
    82   80   83 1   
    83   80   87 1   
    84   81   82 2   
    85   81   93 1   
    86   83   84 1   
    87   83   85 1   
    88   83   88 1   
    89   84   90 1   
    90   84   91 1   
    91   84   92 1   
    92   85   89 1   
    93   93   94 1   
    94   93  101 1   
    95   94   95 1   
    96   94   97 1   
    97   94  102 1   
    98   95   96 2   
    99   95  112 1   
   100   97   98 1   
   101   97   99 1   
   102   97  103 1   
   103   98  100 1   
   104   98  104 1   
   105   98  105 1   
   106   99  106 1   
   107   99  107 1   
   108   99  108 1   
   109  100  109 1   
   110  100  110 1   
   111  100  111 1   
   112  112  113 1   
   113  112  119 1   
   114  113  114 1   
   115  113  116 1   
   116  113  120 1   
   117  114  115 2   
   118  114  126 1   
   119  116  117 1   
   120  116  118 1   
   121  116  121 1   
   122  117  123 1   
   123  117  124 1   
   124  117  125 1   
   125  118  122 1   
   126  126  127 1   
   127  126  133 1   
   128  127  128 1   
   129  127  130 1   
   130  127  134 1   
   131  128  129 2   
   132  128  140 1   
   133  130  131 1   
   134  130  132 1   
   135  130  135 1   
   136  131  137 1   
   137  131  138 1   
   138  131  139 1   
   139  132  136 1   
   140  140  141 1   
   141  140  149 1   
   142  141  142 1   
   143  141  144 1   
   144  141  150 1   
   145  142  143 2   
   146  142  162 1   
   147  144  145 1   
   148  144  151 1   
   149  144  152 1   
   150  145  146 1   
   151  145  153 1   
   152  145  154 1   
   153  146  147 1   
   154  146  155 1   
   155  146  156 1   
   156  147  148 1   
   157  147  157 1   
   158  147  158 1   
   159  148  159 1   
   160  148  160 1   
   161  148  161 1   
   162  162  163 1   
   163  162  171 1   
   164  163  164 1   
   165  163  166 1   
   166  163  172 1   
   167  164  165 2   
   168  164  177 1   
   169  166  167 1   
   170  166  173 1   
   171  166  174 1   
   172  167  168 1   
   173  167  175 1   
   174  167  176 1   
   175  168  169 1   
   176  168  170 1   
   177  177  178 1   
   178  177  182 1   
   179  178  179 1   
   180  178  180 1   
   181  178  181 1   
   182  184  185 1   
   183  184  186 1   
   184  187  188 1   
   185  187  189 1   
@<TRIPOS>SUBSTRUCTURE
     1 MOL         1 TEMP              0 ****  ****    0 ROOT
