@<TRIPOS>MOLECULE
MOL
  179   176     1     0     0
SMALL
resp


@<TRIPOS>ATOM
      1 C1          2.6920    3.2200    4.7980 c3        1 MOL     -0.307754
      2 C2          1.9510    3.0420    3.4100 c         1 MOL      0.484966
      3 O1          2.5170    2.8710    2.3190 o         1 MOL     -0.518299
      4 H1          2.3540    4.1410    5.2730 hc        1 MOL      0.089080
      5 H2          2.4620    2.3730    5.4440 hc        1 MOL      0.089080
      6 H3          3.7680    3.2700    4.6320 hc        1 MOL      0.089080
      7 N1          0.6350    3.0970    3.4900 n         1 MOL     -0.511229
      8 C3         -0.2310    2.7740    2.3000 c3        1 MOL      0.356556
      9 C4         -0.5400    3.9280    1.4360 c         1 MOL      0.368062
     10 O2         -1.5760    4.5700    1.6250 o         1 MOL     -0.487492
     11 C5         -1.5180    2.0200    2.7620 c3        1 MOL     -0.457097
     12 C6         -2.3830    1.6450    1.5990 c         1 MOL      1.050478
     13 O3         -3.6180    1.4990    1.7720 o         1 MOL     -0.791429
     14 O4         -1.8920    1.5440    0.4370 o         1 MOL     -0.791429
     15 H4          0.1940    3.2300    4.3950 hn        1 MOL      0.317231
     16 H5          0.3440    2.0340    1.7320 h1        1 MOL      0.005305
     17 H6         -2.0950    2.6630    3.4170 hc        1 MOL      0.097038
     18 H7         -1.1370    1.0930    3.1880 hc        1 MOL      0.097038
     19 N2          0.3930    4.4120    0.5910 n         1 MOL     -0.398849
     20 C7          0.3230    5.7180   -0.0320 c3        1 MOL     -0.026633
     21 C8         -0.6270    5.8640   -1.2600 c         1 MOL      0.532759
     22 O5         -0.6780    6.8070   -1.9900 o         1 MOL     -0.545975
     23 C9          1.7330    6.2210   -0.3720 c3        1 MOL      0.117987
     24 C10         2.6830    6.3280    0.8270 c3        1 MOL     -0.018187
     25 C11         4.0670    6.8310    0.3290 c3        1 MOL      0.056336
     26 C12         5.0700    7.3930    1.2730 c3        1 MOL     -0.169379
     27 N3          5.3960    6.4170    2.3270 n4        1 MOL     -0.187019
     28 H8          1.2800    3.9210    0.5290 hn        1 MOL      0.300307
     29 H9         -0.0860    6.4090    0.6990 h1        1 MOL      0.071597
     30 H10         1.6430    7.2200   -0.8020 hc        1 MOL     -0.005574
     31 H11         2.1410    5.5960   -1.1720 hc        1 MOL     -0.005574
     32 H12         2.8870    5.3380    1.2610 hc        1 MOL      0.001990
     33 H13         2.2860    7.1070    1.4680 hc        1 MOL      0.001990
     34 H14         3.8990    7.6430   -0.3800 hc        1 MOL      0.033518
     35 H15         4.5730    6.0330   -0.2050 hc        1 MOL      0.033518
     36 H16         4.5960    8.2810    1.7110 hx        1 MOL      0.131027
     37 H17         6.0040    7.5820    0.7520 hx        1 MOL      0.131027
     38 H18         5.4920    5.4750    1.9650 hn        1 MOL      0.288499
     39 H19         6.2720    6.6110    2.7980 hn        1 MOL      0.288499
     40 H20         4.7070    6.3730    3.0650 hn        1 MOL      0.288499
     41 N4         -1.5850    4.9140   -1.3710 n         1 MOL     -0.297987
     42 C13        -2.8160    5.0030   -2.2360 c3        1 MOL     -0.012200
     43 C14        -4.1810    4.5710   -1.5840 c         1 MOL      0.428270
     44 O6         -5.1560    4.4980   -2.3020 o         1 MOL     -0.504435
     45 C15        -2.6600    4.1890   -3.4800 c3        1 MOL     -0.054889
     46 C16        -2.3460    2.7510   -3.1470 c         1 MOL      0.757953
     47 O7         -3.0240    2.0600   -2.3540 o         1 MOL     -0.755379
     48 O8         -1.2830    2.2880   -3.5490 o         1 MOL     -0.755379
     49 H21        -1.4570    4.1340   -0.7330 hn        1 MOL      0.208275
     50 H22        -3.0560    6.0460   -2.4520 h1        1 MOL      0.106973
     51 H23        -1.8430    4.6430   -4.0410 hc        1 MOL      0.018936
     52 H24        -3.5670    4.2240   -4.0850 hc        1 MOL      0.018936
     53 N5         -4.2370    4.2650   -0.3100 n         1 MOL     -0.224435
     54 C17        -5.5050    4.1580    0.3980 c3        1 MOL     -0.251049
     55 C18        -6.2460    2.8010    0.1730 c         1 MOL      0.548141
     56 O9         -7.3760    2.6370    0.7010 o         1 MOL     -0.580839
     57 H25        -3.3430    4.1190    0.1480 hn        1 MOL      0.170234
     58 H26        -6.1270    4.9440   -0.0090 h1        1 MOL      0.140878
     59 H27        -5.3780    4.2820    1.4760 h1        1 MOL      0.140878
     60 N6         -5.6500    1.8660   -0.6060 n         1 MOL     -0.261454
     61 C19        -6.3890    0.6730   -1.1520 c3        1 MOL      0.050675
     62 C20        -6.6780   -0.4540   -0.1860 c         1 MOL      0.215785
     63 O10        -7.5170   -1.3420   -0.4660 o         1 MOL     -0.468689
     64 C21        -5.6780    0.1370   -2.4720 c3        1 MOL     -0.178497
     65 C22        -4.8970   -1.0980   -2.2200 c         1 MOL      0.560921
     66 N7         -5.2850   -2.2260   -2.7440 n         1 MOL     -0.636064
     67 O11        -3.7730   -0.8920   -1.6530 o         1 MOL     -0.636907
     68 H28        -4.7480    2.1310   -0.9610 hn        1 MOL      0.186645
     69 H29        -7.3670    0.8620   -1.5990 h1        1 MOL      0.105546
     70 H30        -5.0500    0.9010   -2.9210 hc        1 MOL      0.086792
     71 H31        -6.3920   -0.0610   -3.2700 hc        1 MOL      0.086792
     72 H32        -6.1740   -2.3420   -3.1970 hn        1 MOL      0.352692
     73 H33        -4.6590   -3.0120   -2.6260 hn        1 MOL      0.352692
     74 N8         -5.9960   -0.3540    0.9640 n         1 MOL      0.008313
     75 C23        -6.1410   -1.2900    2.0910 c3        1 MOL     -0.427742
     76 C24        -4.9620   -2.2120    2.3170 c         1 MOL      0.601677
     77 O12        -5.0660   -3.1160    3.1890 o         1 MOL     -0.574891
     78 H34        -5.3730    0.4300    1.0730 hn        1 MOL      0.277018
     79 H35        -6.9840   -1.9580    1.9680 h1        1 MOL      0.190634
     80 H36        -6.4600   -0.6170    2.8920 h1        1 MOL      0.190634
     81 N9         -3.8950   -2.1380    1.5720 n         1 MOL     -0.373170
     82 C25        -2.8670   -3.1840    1.4050 c3        1 MOL      0.131085
     83 C26        -1.5870   -2.4790    1.2100 c         1 MOL      0.608432
     84 O13        -1.4480   -1.5990    0.4310 o         1 MOL     -0.669589
     85 C27        -3.2030   -4.1000    0.2220 c3        1 MOL      0.168691
     86 C28        -4.4850   -4.8700    0.3420 ca        1 MOL     -0.012025
     87 C29        -5.6560   -4.2010    0.0080 ca        1 MOL     -0.132501
     88 C30        -4.4860   -6.1850    0.7460 ca        1 MOL     -0.132501
     89 C31        -6.9170   -4.8520    0.0470 ca        1 MOL     -0.276899
     90 C32        -5.7520   -6.9170    0.7710 ca        1 MOL     -0.276899
     91 C33        -6.9560   -6.1850    0.3660 ca        1 MOL      0.346491
     92 O14        -8.1560   -6.8930    0.5530 oh        1 MOL     -0.491209
     93 H37        -3.8580   -1.3100    1.0000 hn        1 MOL      0.128541
     94 H38        -2.8690   -3.8400    2.2870 h1        1 MOL      0.050116
     95 H39        -2.3890   -4.8020    0.0730 hc        1 MOL     -0.043532
     96 H40        -3.2880   -3.6350   -0.7520 hc        1 MOL     -0.043532
     97 H41        -5.6330   -3.1540   -0.2710 ha        1 MOL      0.104660
     98 H42        -3.6390   -6.7760    1.0470 ha        1 MOL      0.104660
     99 H43        -7.8290   -4.2810   -0.0550 ha        1 MOL      0.160060
    100 H44        -5.5860   -7.9150    1.1320 ha        1 MOL      0.160060
    101 H45        -8.0140   -7.8050    0.8000 ho        1 MOL      0.346843
    102 N10        -0.5320   -2.8420    1.9170 n         1 MOL     -0.517098
    103 C34         0.8650   -2.3480    1.6930 c3        1 MOL      0.006984
    104 C35         1.7050   -3.4260    0.9310 c         1 MOL      0.520850
    105 O15         1.9570   -4.4930    1.3700 o         1 MOL     -0.538689
    106 C36         1.5120   -2.1990    3.1120 c3        1 MOL      0.309682
    107 C37         0.6850   -1.3790    4.1350 c3        1 MOL      0.033706
    108 C38         2.8840   -1.5670    3.0550 c3        1 MOL     -0.350735
    109 C39         0.8950   -1.7820    5.6280 c3        1 MOL     -0.166935
    110 H46        -0.6390   -3.5450    2.6360 hn        1 MOL      0.260194
    111 H47         0.8430   -1.4140    1.1310 h1        1 MOL      0.059653
    112 H48         1.6830   -3.1820    3.5430 hc        1 MOL     -0.032297
    113 H49        -0.3850   -1.4050    3.9150 hc        1 MOL      0.005466
    114 H50         0.9140   -0.3190    4.0340 hc        1 MOL      0.005466
    115 H51         3.6060   -2.2100    2.5400 hc        1 MOL      0.070294
    116 H52         2.9040   -0.5690    2.6100 hc        1 MOL      0.070294
    117 H53         3.2530   -1.4310    4.0760 hc        1 MOL      0.070294
    118 H54         0.3920   -1.0400    6.2400 hc        1 MOL      0.037960
    119 H55         0.3660   -2.7200    5.8170 hc        1 MOL      0.037960
    120 H56         1.9550   -1.8480    5.8560 hc        1 MOL      0.037960
    121 N11         2.0710   -3.1490   -0.3050 n         1 MOL     -0.351712
    122 C40         3.0360   -3.9710   -1.0010 c3        1 MOL     -0.031260
    123 C41         4.4880   -3.9480   -0.3360 c         1 MOL      0.313259
    124 O16         4.7740   -2.9570    0.3070 o         1 MOL     -0.302229
    125 C42         3.1540   -3.6830   -2.5060 c3        1 MOL     -0.127057
    126 O17         3.7100   -2.4460   -2.9020 oh        1 MOL     -0.460777
    127 H57         1.7060   -2.3010   -0.7380 hn        1 MOL      0.350399
    128 H58         2.6310   -4.9750   -0.8850 h1        1 MOL      0.079257
    129 H59         2.1380   -3.8130   -2.8880 h1        1 MOL      0.100073
    130 H60         3.8880   -4.4180   -2.8330 h1        1 MOL      0.100073
    131 H61         3.1610   -1.7010   -2.6590 ho        1 MOL      0.333242
    132 N12         5.3650   -4.8930   -0.6680 n         1 MOL     -0.266344
    133 C43         6.7230   -4.7710   -0.2330 c3        1 MOL      0.013636
    134 C44         7.4820   -3.5770   -0.7930 c         1 MOL      0.463096
    135 O18         8.2510   -2.9860   -0.0900 o         1 MOL     -0.479193
    136 C45         7.3770   -6.1110   -0.6150 c3        1 MOL     -0.127450
    137 H62         5.1140   -5.7200   -1.1870 hn        1 MOL      0.240041
    138 H63         6.7240   -4.6980    0.8610 h1        1 MOL      0.084578
    139 H64         7.5850   -6.0590   -1.6910 hc        1 MOL      0.046626
    140 H65         8.3260   -6.2960   -0.1100 hc        1 MOL      0.046626
    141 H66         6.7760   -6.9640   -0.3010 hc        1 MOL      0.046626
    142 N13         7.0490   -3.1200   -2.0240 n         1 MOL     -0.315114
    143 C46         7.6080   -1.9210   -2.7320 c3        1 MOL     -0.030321
    144 C47         7.1990   -0.6930   -1.9200 c         1 MOL      0.456420
    145 O19         8.0170    0.1710   -1.6060 o         1 MOL     -0.531616
    146 C48         7.1480   -1.8610   -4.1940 c3        1 MOL     -0.189833
    147 H67         6.4520   -3.7290   -2.5730 hn        1 MOL      0.269900
    148 H68         8.6990   -2.0280   -2.7400 h1        1 MOL      0.099308
    149 H69         7.4080   -2.7330   -4.7970 hc        1 MOL      0.061835
    150 H70         6.0640   -1.7850   -4.1680 hc        1 MOL      0.061835
    151 H71         7.5020   -0.9370   -4.6510 hc        1 MOL      0.061835
    152 N14         6.0080   -0.5590   -1.4030 n         1 MOL     -0.178933
    153 C49         5.5130    0.5800   -0.5550 c3        1 MOL     -0.122989
    154 C50         6.2140    0.5620    0.8520 c         1 MOL      0.486630
    155 O20         6.7500    1.5700    1.2520 o         1 MOL     -0.558541
    156 C51         4.0140    0.4840   -0.3880 c3        1 MOL      0.155581
    157 C52         3.1890    0.7790   -1.5970 c3        1 MOL      0.018682
    158 C53         1.7050    0.4940   -1.4430 c         1 MOL      0.669330
    159 O21         1.2330   -0.6510   -1.5360 o         1 MOL     -0.749938
    160 O22         0.8310    1.4120   -1.2890 o         1 MOL     -0.749938
    161 H72         5.3420   -1.3160   -1.5110 hn        1 MOL      0.150686
    162 H73         5.7620    1.5780   -0.9010 h1        1 MOL      0.086441
    163 H74         3.7790    1.2140    0.3960 hc        1 MOL     -0.051597
    164 H75         3.7540   -0.4470    0.1180 hc        1 MOL     -0.051597
    165 H76         3.5660    0.3720   -2.5320 hc        1 MOL     -0.016519
    166 H77         3.3260    1.8480   -1.7780 hc        1 MOL     -0.016519
    167 N15         6.1850   -0.6090    1.4550 n         1 MOL     -0.138635
    168 C54         6.8120   -0.8880    2.7940 c3        1 MOL     -0.082439
    169 H78         7.4870   -1.7400    2.7080 h1        1 MOL      0.058204
    170 H79         7.3710   -0.0130    3.1230 h1        1 MOL      0.058204
    171 H80         6.0320   -1.1160    3.5200 h1        1 MOL      0.058204
    172 H81         5.8120   -1.4060    0.9560 hn        1 MOL      0.113928
    173 Ca1        -1.3290    0.1730   -1.5820 Ca        1 MOL      1.807298
    174 O23        -1.2920   -2.3590   -2.8270 oh        1 MOL     -0.791489
    175 H82        -0.5600   -2.9790   -2.8080 ho        1 MOL      0.389470
    176 H83        -1.8940   -2.7310   -3.4760 ho        1 MOL      0.389470
    177 O24        -0.2610   -0.0110   -4.1930 oh        1 MOL     -0.791489
    178 H84         0.2710   -0.5200   -4.8100 ho        1 MOL      0.389470
    179 H85         0.0280    0.8940   -4.3170 ho        1 MOL      0.389470
@<TRIPOS>BOND
     1    1    2 1   
     2    1    4 1   
     3    1    5 1   
     4    1    6 1   
     5    2    3 2   
     6    2    7 1   
     7    7    8 1   
     8    7   15 1   
     9    8    9 1   
    10    8   11 1   
    11    8   16 1   
    12    9   10 2   
    13    9   19 1   
    14   11   12 1   
    15   11   17 1   
    16   11   18 1   
    17   12   13 1   
    18   12   14 1   
    19   19   20 1   
    20   19   28 1   
    21   20   21 1   
    22   20   23 1   
    23   20   29 1   
    24   21   22 2   
    25   21   41 1   
    26   23   24 1   
    27   23   30 1   
    28   23   31 1   
    29   24   25 1   
    30   24   32 1   
    31   24   33 1   
    32   25   26 1   
    33   25   34 1   
    34   25   35 1   
    35   26   27 1   
    36   26   36 1   
    37   26   37 1   
    38   27   38 1   
    39   27   39 1   
    40   27   40 1   
    41   41   42 1   
    42   41   49 1   
    43   42   43 1   
    44   42   45 1   
    45   42   50 1   
    46   43   44 2   
    47   43   53 1   
    48   45   46 1   
    49   45   51 1   
    50   45   52 1   
    51   46   47 1   
    52   46   48 1   
    53   53   54 1   
    54   53   57 1   
    55   54   55 1   
    56   54   58 1   
    57   54   59 1   
    58   55   56 2   
    59   55   60 1   
    60   60   61 1   
    61   60   68 1   
    62   61   62 1   
    63   61   64 1   
    64   61   69 1   
    65   62   63 2   
    66   62   74 1   
    67   64   65 1   
    68   64   70 1   
    69   64   71 1   
    70   65   66 1   
    71   65   67 2   
    72   66   72 1   
    73   66   73 1   
    74   74   75 1   
    75   74   78 1   
    76   75   76 1   
    77   75   79 1   
    78   75   80 1   
    79   76   77 2   
    80   76   81 1   
    81   81   82 1   
    82   81   93 1   
    83   82   83 1   
    84   82   85 1   
    85   82   94 1   
    86   83   84 2   
    87   83  102 1   
    88   85   86 1   
    89   85   95 1   
    90   85   96 1   
    91   86   87 ar  
    92   86   88 ar  
    93   87   89 ar  
    94   87   97 1   
    95   88   90 ar  
    96   88   98 1   
    97   89   91 ar  
    98   89   99 1   
    99   90   91 ar  
   100   90  100 1   
   101   91   92 1   
   102   92  101 1   
   103  102  103 1   
   104  102  110 1   
   105  103  104 1   
   106  103  106 1   
   107  103  111 1   
   108  104  105 2   
   109  104  121 1   
   110  106  107 1   
   111  106  108 1   
   112  106  112 1   
   113  107  109 1   
   114  107  113 1   
   115  107  114 1   
   116  108  115 1   
   117  108  116 1   
   118  108  117 1   
   119  109  118 1   
   120  109  119 1   
   121  109  120 1   
   122  121  122 1   
   123  121  127 1   
   124  122  123 1   
   125  122  125 1   
   126  122  128 1   
   127  123  124 2   
   128  123  132 1   
   129  125  126 1   
   130  125  129 1   
   131  125  130 1   
   132  126  131 1   
   133  132  133 1   
   134  132  137 1   
   135  133  134 1   
   136  133  136 1   
   137  133  138 1   
   138  134  135 2   
   139  134  142 1   
   140  136  139 1   
   141  136  140 1   
   142  136  141 1   
   143  142  143 1   
   144  142  147 1   
   145  143  144 1   
   146  143  146 1   
   147  143  148 1   
   148  144  145 2   
   149  144  152 1   
   150  146  149 1   
   151  146  150 1   
   152  146  151 1   
   153  152  153 1   
   154  152  161 1   
   155  153  154 1   
   156  153  156 1   
   157  153  162 1   
   158  154  155 2   
   159  154  167 1   
   160  156  157 1   
   161  156  163 1   
   162  156  164 1   
   163  157  158 1   
   164  157  165 1   
   165  157  166 1   
   166  158  159 1   
   167  158  160 1   
   168  167  168 1   
   169  167  172 1   
   170  168  169 1   
   171  168  170 1   
   172  168  171 1   
   173  174  175 1   
   174  174  176 1   
   175  177  178 1   
   176  177  179 1   
@<TRIPOS>SUBSTRUCTURE
     1 MOL         1 TEMP              0 ****  ****    0 ROOT
