@<TRIPOS>MOLECULE
MOL
  175   173     1     0     0
SMALL
resp


@<TRIPOS>ATOM
      1 C1          0.6120    3.9700    5.5060 c3        1 MOL     -0.410564
      2 C2         -0.0230    3.8440    4.0590 c         1 MOL      0.714521
      3 O1          0.7340    3.7380    3.0660 o         1 MOL     -0.526490
      4 H1          0.1860    3.2080    6.1570 hc        1 MOL      0.098544
      5 H2          1.6910    3.8320    5.4430 hc        1 MOL      0.098544
      6 H3          0.3950    4.9580    5.9130 hc        1 MOL      0.098544
      7 N1         -1.3390    4.1030    3.9560 n         1 MOL     -0.756286
      8 C3         -2.0390    3.6830    2.6480 c3        1 MOL      0.421811
      9 C4         -1.9530    4.9060    1.6060 c         1 MOL      0.449849
     10 O2         -1.9030    6.0820    1.9970 o         1 MOL     -0.561314
     11 C5         -3.4620    3.3150    2.8430 c3        1 MOL     -0.395886
     12 C6         -4.2430    2.8480    1.6660 c         1 MOL      0.756090
     13 O3         -3.6200    2.2780    0.7760 o         1 MOL     -0.647426
     14 O4         -5.4700    3.0840    1.7830 o         1 MOL     -0.647426
     15 H4         -1.7620    4.5710    4.7420 hn        1 MOL      0.362067
     16 H5         -1.5470    2.8120    2.2220 h1        1 MOL      0.001119
     17 H6         -3.9800    4.1160    3.3720 hc        1 MOL      0.064522
     18 H7         -3.3810    2.4370    3.4800 hc        1 MOL      0.064522
     19 N2         -2.0280    4.5960    0.3040 n         1 MOL     -0.393789
     20 C7         -2.2070    5.4910   -0.8220 c3        1 MOL      0.307625
     21 C8         -3.3700    5.2660   -1.7810 c         1 MOL      0.369692
     22 O5         -3.5710    6.0640   -2.7070 o         1 MOL     -0.543360
     23 C9         -0.8430    5.4890   -1.4870 c3        1 MOL     -0.075272
     24 H8         -1.9570    3.5960    0.1740 hn        1 MOL      0.252794
     25 H9         -2.2670    6.5260   -0.4780 h1        1 MOL     -0.007482
     26 H10        -0.3530    4.5150   -1.5520 hc        1 MOL      0.009181
     27 H11        -0.9630    5.9260   -2.4720 hc        1 MOL      0.009181
     28 H12        -0.1420    6.0970   -0.9210 hc        1 MOL      0.009181
     29 N3         -4.0610    4.1020   -1.6520 n         1 MOL     -0.353412
     30 C10        -4.9770    3.4780   -2.7340 c3        1 MOL      0.223681
     31 C11        -6.0760    2.5290   -2.3000 c         1 MOL      0.281775
     32 O6         -7.0430    2.3190   -3.0290 o         1 MOL     -0.542335
     33 C12        -4.1180    2.7600   -3.8000 c3        1 MOL     -0.311239
     34 C13        -3.2470    1.5780   -3.3420 c         1 MOL      0.773423
     35 O7         -3.4620    1.0240   -2.2710 o         1 MOL     -0.708849
     36 O8         -2.3070    1.1880   -4.0930 o         1 MOL     -0.708849
     37 H13        -3.8860    3.5270   -0.8450 hn        1 MOL      0.180590
     38 H14        -5.3980    4.2950   -3.3260 h1        1 MOL      0.053139
     39 H15        -3.4250    3.4820   -4.2480 hc        1 MOL      0.072860
     40 H16        -4.8370    2.3370   -4.5010 hc        1 MOL      0.072860
     41 N4         -5.9650    2.0280   -1.0610 n         1 MOL     -0.043792
     42 C14        -6.9060    1.0680   -0.3810 c3        1 MOL     -0.115109
     43 C15        -7.0540   -0.2980   -1.0680 c         1 MOL      0.567094
     44 O9         -8.0810   -0.8440   -0.9310 o         1 MOL     -0.618475
     45 H17        -5.1280    2.2900   -0.5610 hn        1 MOL     -0.020195
     46 H18        -7.8480    1.5080   -0.0430 h1        1 MOL      0.084150
     47 H19        -6.4320    0.8900    0.5880 h1        1 MOL      0.084150
     48 N5         -6.0800   -0.8520   -1.7940 n         1 MOL     -0.279039
     49 C16        -6.0760   -2.2270   -2.3140 c3        1 MOL     -0.070104
     50 C17        -6.0120   -3.3170   -1.2120 c         1 MOL      0.409397
     51 O10        -5.4870   -4.3850   -1.5460 o         1 MOL     -0.483158
     52 C18        -4.8930   -2.3090   -3.2860 c3        1 MOL     -0.104041
     53 C19        -3.5380   -2.1700   -2.6460 c         1 MOL      0.448368
     54 N6         -2.4350   -2.5270   -3.3490 n         1 MOL     -0.562919
     55 O11        -3.4180   -1.8420   -1.4940 o         1 MOL     -0.544255
     56 H20        -5.3790   -0.1960   -2.1010 hn        1 MOL      0.282060
     57 H21        -6.9910   -2.2570   -2.8930 h1        1 MOL      0.102701
     58 H22        -4.9810   -1.5850   -4.1000 hc        1 MOL      0.061600
     59 H23        -4.9230   -3.2650   -3.8270 hc        1 MOL      0.061600
     60 H24        -2.5950   -2.8310   -4.3000 hn        1 MOL      0.311900
     61 H25        -1.5600   -2.3040   -2.9060 hn        1 MOL      0.311900
     62 N7         -6.5220   -3.1430    0.0080 n         1 MOL     -0.202876
     63 C20        -6.5590   -4.0780    1.1090 c3        1 MOL     -0.141871
     64 C21        -5.2160   -4.5580    1.6810 c         1 MOL      0.494567
     65 O12        -5.2110   -5.4450    2.4620 o         1 MOL     -0.547686
     66 H26        -7.0310   -2.2780    0.1090 hn        1 MOL      0.233982
     67 H27        -7.2080   -4.9130    0.8170 h1        1 MOL      0.096501
     68 H28        -7.1160   -3.6010    1.9140 h1        1 MOL      0.096501
     69 N8         -4.0960   -3.9550    1.3110 n         1 MOL     -0.079014
     70 C22        -2.7300   -4.4550    1.5330 c3        1 MOL     -0.247150
     71 C23        -1.7080   -3.3160    1.5580 c         1 MOL      0.546663
     72 O13        -1.8560   -2.2140    0.9470 o         1 MOL     -0.513018
     73 C24        -2.3940   -5.5290    0.4550 c3        1 MOL      0.469217
     74 C25        -3.1530   -6.8140    0.6710 c3        1 MOL     -0.442664
     75 O14        -2.6220   -4.9610   -0.8020 oh        1 MOL     -0.575479
     76 H29        -4.0800   -3.1070    0.7600 hn        1 MOL     -0.021747
     77 H30        -2.7750   -4.8460    2.5490 h1        1 MOL      0.091092
     78 H31        -1.3240   -5.7320    0.4960 h1        1 MOL      0.017385
     79 H32        -3.5500   -4.7200   -0.8330 ho        1 MOL      0.351082
     80 H33        -3.2320   -7.0630    1.7300 hc        1 MOL      0.105362
     81 H34        -4.1410   -6.5950    0.2690 hc        1 MOL      0.105362
     82 H35        -2.6480   -7.6590    0.2100 hc        1 MOL      0.105362
     83 N9         -0.5880   -3.5160    2.2450 n         1 MOL     -0.355649
     84 C26         0.5610   -2.6060    2.1740 c3        1 MOL     -0.070298
     85 C27         1.5100   -2.9740    1.0600 c         1 MOL      0.677881
     86 O15         1.9290   -4.1060    0.9980 o         1 MOL     -0.618748
     87 C28         1.3670   -2.5070    3.5480 c3        1 MOL      0.070780
     88 C29         0.3970   -1.9260    4.6560 c3        1 MOL      0.213387
     89 C30         2.5590   -1.6080    3.5550 c3        1 MOL     -0.444240
     90 C31         0.8910   -2.4260    6.0290 c3        1 MOL     -0.133915
     91 H36        -0.5220   -4.4430    2.6370 hn        1 MOL      0.241961
     92 H37         0.2470   -1.5890    1.9360 h1        1 MOL      0.060214
     93 H38         1.7170   -3.5010    3.8410 hc        1 MOL      0.024537
     94 H39        -0.6250   -2.2960    4.5370 hc        1 MOL     -0.057143
     95 H40         0.3090   -0.8410    4.5190 hc        1 MOL     -0.057143
     96 H41         2.9040   -1.4040    4.5650 hc        1 MOL      0.121052
     97 H42         3.3650   -1.9510    2.8930 hc        1 MOL      0.121052
     98 H43         2.3250   -0.5810    3.2890 hc        1 MOL      0.121052
     99 H44         0.2290   -2.1740    6.8600 hc        1 MOL      0.015368
    100 H45         0.8620   -3.5180    5.9820 hc        1 MOL      0.015368
    101 H46         1.8720   -2.0590    6.3300 hc        1 MOL      0.015368
    102 N10         1.8020   -2.0540    0.1360 n         1 MOL     -0.218991
    103 C32         2.6670   -2.1570   -1.0660 c3        1 MOL     -0.145603
    104 C33         4.1480   -1.8210   -0.6420 c         1 MOL      0.526860
    105 O16         4.4060   -1.0500    0.2930 o         1 MOL     -0.394306
    106 C34         2.0930   -1.1170   -2.0670 c3        1 MOL     -0.329993
    107 C35         0.6140   -1.3820   -2.3120 c         1 MOL      0.824904
    108 O17        -0.2480   -0.8010   -1.6390 o         1 MOL     -0.682864
    109 O18         0.2850   -2.0550   -3.3130 o         1 MOL     -0.682864
    110 H47         1.4140   -1.1390    0.3460 hn        1 MOL      0.038292
    111 H48         2.5150   -3.1740   -1.4200 h1        1 MOL      0.124789
    112 H49         2.6320   -1.1220   -3.0180 hc        1 MOL      0.123838
    113 H50         2.1910   -0.1200   -1.6190 hc        1 MOL      0.123838
    114 N11         5.0880   -2.2350   -1.4850 n         1 MOL     -0.670668
    115 C36         6.5710   -1.8790   -1.2920 c3        1 MOL      0.490348
    116 C37         6.7750   -0.4440   -0.8730 c         1 MOL      0.282879
    117 O19         7.3640   -0.3720    0.2310 o         1 MOL     -0.497994
    118 C38         7.4950   -2.3240   -2.3770 c3        1 MOL     -0.324828
    119 C39         8.9390   -1.7890   -2.2350 ca        1 MOL      0.140822
    120 C40         9.7070   -2.1920   -1.1450 ca        1 MOL     -0.179225
    121 C41         9.4990   -0.9500   -3.2370 ca        1 MOL     -0.179225
    122 C42        10.9950   -1.7370   -1.0680 ca        1 MOL     -0.108828
    123 C43        10.7560   -0.4270   -3.0920 ca        1 MOL     -0.108828
    124 C44        11.5620   -0.8790   -2.0600 ca        1 MOL     -0.105489
    125 H51         4.8390   -2.7930   -2.2940 hn        1 MOL      0.346360
    126 H52         6.8470   -2.5670   -0.5000 h1        1 MOL      0.027467
    127 H53         7.0050   -2.0820   -3.3180 hc        1 MOL      0.075255
    128 H54         7.3970   -3.4020   -2.3580 hc        1 MOL      0.075255
    129 H55         9.3380   -2.7930   -0.3300 ha        1 MOL      0.128625
    130 H56         8.9030   -0.6580   -4.0920 ha        1 MOL      0.128625
    131 H57        11.5250   -1.8930   -0.1420 ha        1 MOL      0.115087
    132 H58        11.0520    0.3500   -3.7710 ha        1 MOL      0.115087
    133 H59        12.6020   -0.5870   -2.0080 ha        1 MOL      0.093241
    134 N12         6.3860    0.6520   -1.5940 n         1 MOL     -0.017742
    135 C45         6.6470    2.0420   -1.2440 c3        1 MOL      0.012568
    136 C46         5.9550    2.3930    0.0600 c         1 MOL      0.311600
    137 O20         6.5410    3.1990    0.7370 o         1 MOL     -0.508061
    138 C47         6.1640    2.8620   -2.4650 c3        1 MOL     -0.027293
    139 C48         5.8550    1.9610   -3.6010 c3        1 MOL      0.058473
    140 C49         5.6730    0.6090   -2.9040 c3        1 MOL     -0.176068
    141 H60         7.7220    2.0580   -1.0530 h1        1 MOL      0.069303
    142 H61         5.2190    3.3370   -2.2080 hc        1 MOL      0.032570
    143 H62         6.9130    3.6160   -2.7280 hc        1 MOL      0.032570
    144 H63         4.9790    2.2880   -4.1740 hc        1 MOL      0.010584
    145 H64         6.7520    1.9800   -4.2060 hc        1 MOL      0.010584
    146 H65         4.6170    0.5320   -2.6720 h1        1 MOL      0.062139
    147 H66         6.0550   -0.1800   -3.5520 h1        1 MOL      0.062139
    148 N13         4.8030    1.7890    0.3700 n         1 MOL     -0.148966
    149 C50         4.1260    1.9980    1.6780 c3        1 MOL     -0.150497
    150 C51         4.8190    1.2950    2.8860 c         1 MOL      0.477767
    151 O21         4.7470    1.7780    4.0100 o         1 MOL     -0.556017
    152 C52         2.6980    1.4440    1.5300 c3        1 MOL     -0.042835
    153 C53         1.8070    2.2470    0.4910 c3        1 MOL      0.029939
    154 C54         0.3180    1.7240    0.3810 c         1 MOL      0.409076
    155 O22        -0.1600    0.9280    1.1630 o         1 MOL     -0.622837
    156 O23        -0.4160    2.0200   -0.6090 o         1 MOL     -0.622837
    157 H67         4.5450    1.0450   -0.2480 hn        1 MOL      0.151974
    158 H68         4.1760    3.0640    1.8830 h1        1 MOL      0.142100
    159 H69         2.4070    1.7400    2.5340 hc        1 MOL      0.050263
    160 H70         2.6140    0.3690    1.4240 hc        1 MOL      0.050263
    161 H71         2.3080    2.4130   -0.4630 hc        1 MOL      0.041356
    162 H72         1.7530    3.2520    0.8950 hc        1 MOL      0.041356
    163 N14         5.4300    0.1470    2.6340 n         1 MOL     -0.093832
    164 C55         6.1890   -0.5810    3.6590 c3        1 MOL     -0.072530
    165 H73         5.5380   -1.3090    4.1430 h1        1 MOL      0.038833
    166 H74         7.0270   -1.0990    3.1920 h1        1 MOL      0.038833
    167 H75         6.5630    0.1220    4.4020 h1        1 MOL      0.038833
    168 H76         5.3440   -0.3040    1.7400 hn        1 MOL      0.116380
    169 Ca1        -2.2020    0.1200   -0.3320 Ca        1 MOL      1.665785
    170 O24        -4.5020   -0.5240    1.1360 oh        1 MOL     -0.773480
    171 H77        -5.0940   -1.0840    1.6270 ho        1 MOL      0.384224
    172 H78        -3.9290   -0.1440    1.7980 ho        1 MOL      0.384224
    173 O25        -2.1650    0.3210    2.5240 oh        1 MOL     -0.773480
    174 H79        -2.0070    0.3940    3.4610 ho        1 MOL      0.384224
    175 H80        -1.3320    0.5460    2.1170 ho        1 MOL      0.384224
@<TRIPOS>BOND
     1    1    2 1   
     2    1    4 1   
     3    1    5 1   
     4    1    6 1   
     5    2    3 2   
     6    2    7 1   
     7    7    8 1   
     8    7   15 1   
     9    8    9 1   
    10    8   11 1   
    11    8   16 1   
    12    9   10 2   
    13    9   19 1   
    14   11   12 1   
    15   11   17 1   
    16   11   18 1   
    17   12   13 1   
    18   12   14 1   
    19   19   20 1   
    20   19   24 1   
    21   20   21 1   
    22   20   23 1   
    23   20   25 1   
    24   21   22 2   
    25   21   29 1   
    26   23   26 1   
    27   23   27 1   
    28   23   28 1   
    29   29   30 1   
    30   29   37 1   
    31   30   31 1   
    32   30   33 1   
    33   30   38 1   
    34   31   32 2   
    35   31   41 1   
    36   33   34 1   
    37   33   39 1   
    38   33   40 1   
    39   34   35 1   
    40   34   36 1   
    41   41   42 1   
    42   41   45 1   
    43   42   43 1   
    44   42   46 1   
    45   42   47 1   
    46   43   44 2   
    47   43   48 1   
    48   48   49 1   
    49   48   56 1   
    50   49   50 1   
    51   49   52 1   
    52   49   57 1   
    53   50   51 2   
    54   50   62 1   
    55   52   53 1   
    56   52   58 1   
    57   52   59 1   
    58   53   54 1   
    59   53   55 2   
    60   54   60 1   
    61   54   61 1   
    62   62   63 1   
    63   62   66 1   
    64   63   64 1   
    65   63   67 1   
    66   63   68 1   
    67   64   65 2   
    68   64   69 1   
    69   69   70 1   
    70   69   76 1   
    71   70   71 1   
    72   70   73 1   
    73   70   77 1   
    74   71   72 2   
    75   71   83 1   
    76   73   74 1   
    77   73   75 1   
    78   73   78 1   
    79   74   80 1   
    80   74   81 1   
    81   74   82 1   
    82   75   79 1   
    83   83   84 1   
    84   83   91 1   
    85   84   85 1   
    86   84   87 1   
    87   84   92 1   
    88   85   86 2   
    89   85  102 1   
    90   87   88 1   
    91   87   89 1   
    92   87   93 1   
    93   88   90 1   
    94   88   94 1   
    95   88   95 1   
    96   89   96 1   
    97   89   97 1   
    98   89   98 1   
    99   90   99 1   
   100   90  100 1   
   101   90  101 1   
   102  102  103 1   
   103  102  110 1   
   104  103  104 1   
   105  103  106 1   
   106  103  111 1   
   107  104  105 2   
   108  104  114 1   
   109  106  107 1   
   110  106  112 1   
   111  106  113 1   
   112  107  108 1   
   113  107  109 1   
   114  114  115 1   
   115  114  125 1   
   116  115  116 1   
   117  115  118 1   
   118  115  126 1   
   119  116  117 2   
   120  116  134 1   
   121  118  119 1   
   122  118  127 1   
   123  118  128 1   
   124  119  120 ar  
   125  119  121 ar  
   126  120  122 ar  
   127  120  129 1   
   128  121  123 ar  
   129  121  130 1   
   130  122  124 ar  
   131  122  131 1   
   132  123  124 ar  
   133  123  132 1   
   134  124  133 1   
   135  134  135 1   
   136  134  140 1   
   137  135  136 1   
   138  135  138 1   
   139  135  141 1   
   140  136  137 2   
   141  136  148 1   
   142  138  139 1   
   143  138  142 1   
   144  138  143 1   
   145  139  140 1   
   146  139  144 1   
   147  139  145 1   
   148  140  146 1   
   149  140  147 1   
   150  148  149 1   
   151  148  157 1   
   152  149  150 1   
   153  149  152 1   
   154  149  158 1   
   155  150  151 2   
   156  150  163 1   
   157  152  153 1   
   158  152  159 1   
   159  152  160 1   
   160  153  154 1   
   161  153  161 1   
   162  153  162 1   
   163  154  155 1   
   164  154  156 1   
   165  163  164 1   
   166  163  168 1   
   167  164  165 1   
   168  164  166 1   
   169  164  167 1   
   170  170  171 1   
   171  170  172 1   
   172  173  174 1   
   173  173  175 1   
@<TRIPOS>SUBSTRUCTURE
     1 MOL         1 TEMP              0 ****  ****    0 ROOT
