@<TRIPOS>MOLECULE
MOL
  175   173     1     0     0
SMALL
resp


@<TRIPOS>ATOM
      1 C1         -0.4120   -3.7350    5.4130 c3        1 MOL     -0.298362
      2 C2          0.3040   -3.6000    4.0930 c         1 MOL      0.774580
      3 O1         -0.2880   -3.9760    3.1260 o         1 MOL     -0.535235
      4 H1         -0.6550   -2.7440    5.7970 hc        1 MOL      0.063140
      5 H2         -1.3300   -4.3050    5.2720 hc        1 MOL      0.063140
      6 H3          0.2320   -4.2510    6.1250 hc        1 MOL      0.063140
      7 N1          1.5340   -3.0310    4.1630 n         1 MOL     -0.783275
      8 C3          2.2490   -2.9020    2.9050 c3        1 MOL      0.206052
      9 C4          2.4600   -4.2850    2.1290 c         1 MOL      0.619451
     10 O2          2.8340   -5.3200    2.7050 o         1 MOL     -0.577813
     11 C5          3.6330   -2.2620    3.2390 c3        1 MOL     -0.283139
     12 C6          4.3740   -2.1910    1.9090 c         1 MOL      0.454846
     13 O3          5.4860   -2.8130    1.8090 o         1 MOL     -0.553981
     14 O4          3.8000   -1.6940    0.8900 o         1 MOL     -0.553981
     15 H4          2.0290   -2.8720    5.0230 hn        1 MOL      0.379483
     16 H5          1.7110   -2.2150    2.2580 h1        1 MOL      0.088393
     17 H6          4.2750   -2.9260    3.8090 hc        1 MOL      0.069432
     18 H7          3.4890   -1.2930    3.7190 hc        1 MOL      0.069432
     19 N2          2.2600   -4.2640    0.7760 n         1 MOL     -0.553196
     20 C7          2.5740   -5.4250   -0.0740 c3        1 MOL      0.335356
     21 C8          3.7480   -5.2240   -1.0970 c         1 MOL      0.517248
     22 O5          4.1820   -6.1640   -1.7110 o         1 MOL     -0.580642
     23 C9          1.2250   -5.8520   -0.7400 c3        1 MOL     -0.339808
     24 H8          1.8770   -3.4050    0.3950 hn        1 MOL      0.274566
     25 H9          2.9730   -6.2890    0.4610 h1        1 MOL      0.010491
     26 H10         1.3760   -6.8010   -1.2650 hc        1 MOL      0.079328
     27 H11         0.5250   -6.0690    0.0540 hc        1 MOL      0.079328
     28 H12         0.8730   -5.1320   -1.4810 hc        1 MOL      0.079328
     29 N3          4.2500   -3.9640   -1.1730 n         1 MOL     -0.454323
     30 C10         4.9500   -3.5080   -2.4430 c3        1 MOL      0.212889
     31 C11         6.1140   -2.5770   -2.1310 c         1 MOL      0.214359
     32 O6          7.0340   -2.2980   -2.9480 o         1 MOL     -0.567889
     33 C12         3.9330   -2.9160   -3.4150 c3        1 MOL     -0.268217
     34 C13         2.9760   -1.8600   -2.8990 c         1 MOL      0.726161
     35 O7          1.8990   -1.7550   -3.5650 o         1 MOL     -0.691274
     36 O8          3.2280   -1.1070   -1.9000 o         1 MOL     -0.691274
     37 H13         3.8690   -3.2880   -0.5250 hn        1 MOL      0.348628
     38 H14         5.4230   -4.3690   -2.9240 h1        1 MOL      0.073389
     39 H15         3.4360   -3.7590   -3.8900 hc        1 MOL      0.059969
     40 H16         4.4780   -2.3310   -4.1530 hc        1 MOL      0.059969
     41 N4          6.1850   -2.0520   -0.9510 n         1 MOL      0.262096
     42 C14         7.3610   -1.2820   -0.4610 c3        1 MOL     -0.271134
     43 C15         7.4000    0.1310   -1.0490 c         1 MOL      0.615212
     44 O9          8.4700    0.6820   -1.2380 o         1 MOL     -0.620135
     45 H17         5.4510   -2.3240   -0.3190 hn        1 MOL     -0.169163
     46 H18         8.3100   -1.7110   -0.7970 h1        1 MOL      0.103389
     47 H19         7.2070   -1.1550    0.6060 h1        1 MOL      0.103389
     48 N5          6.2770    0.7640   -1.3080 n         1 MOL     -0.229512
     49 C16         6.1970    2.0080   -2.0530 c3        1 MOL     -0.102858
     50 C17         6.1250    3.2460   -1.1170 c         1 MOL      0.353389
     51 O10         5.9290    4.3590   -1.6180 o         1 MOL     -0.479753
     52 C18         5.0340    1.8660   -3.0270 c3        1 MOL     -0.049599
     53 C19         3.6240    1.9650   -2.4590 c         1 MOL      0.360076
     54 N6          2.6980    1.6910   -3.2990 n         1 MOL     -0.573097
     55 O11         3.3100    2.1150   -1.2570 o         1 MOL     -0.134567
     56 H20         5.3850    0.4020   -0.9730 hn        1 MOL      0.042611
     57 H21         7.0660    2.1300   -2.7040 h1        1 MOL      0.150851
     58 H22         5.1260    0.9700   -3.6290 hc        1 MOL      0.057578
     59 H23         5.1290    2.6360   -3.7940 hc        1 MOL      0.057578
     60 H24         3.0410    1.4400   -4.2140 hn        1 MOL      0.326728
     61 H25         1.7320    1.5650   -3.0020 hn        1 MOL      0.326728
     62 N7          6.2440    3.1070    0.2490 n         1 MOL     -0.173709
     63 C20         6.1290    4.2590    1.1910 c3        1 MOL     -0.432502
     64 C21         4.7070    4.8320    1.4260 c         1 MOL      0.679843
     65 O12         4.5230    5.8600    2.1020 o         1 MOL     -0.600243
     66 H26         6.4600    2.1930    0.6240 hn        1 MOL      0.222952
     67 H27         6.5350    5.0940    0.6170 h1        1 MOL      0.174615
     68 H28         6.6770    3.9860    2.0880 h1        1 MOL      0.174615
     69 N8          3.6550    4.2130    0.8640 n         1 MOL     -0.408273
     70 C22         2.2830    4.8460    0.8840 c3        1 MOL     -0.230999
     71 C23         1.1870    3.7540    1.1500 c         1 MOL      0.830506
     72 O13         1.3550    2.6480    0.7240 o         1 MOL     -0.678436
     73 C24         1.8130    5.5010   -0.4350 c3        1 MOL      0.487048
     74 C25         2.3560    6.9770   -0.5120 c3        1 MOL     -0.328660
     75 O14         2.2480    4.6980   -1.5920 oh        1 MOL     -0.590038
     76 H29         3.8420    3.5060    0.1640 hn        1 MOL      0.237564
     77 H30         2.1880    5.4650    1.7770 h1        1 MOL      0.124020
     78 H31         0.7280    5.4770   -0.5500 h1        1 MOL      0.025520
     79 H32         2.4440    3.7970   -1.3370 ho        1 MOL      0.242275
     80 H33         1.8020    7.5310    0.2530 hc        1 MOL      0.073964
     81 H34         3.4060    7.1110   -0.2420 hc        1 MOL      0.073964
     82 H35         2.0330    7.5150   -1.3920 hc        1 MOL      0.073964
     83 N9          0.0930    3.9950    1.9600 n         1 MOL     -0.836914
     84 C26        -0.9950    3.0610    2.0230 c3        1 MOL      0.168840
     85 C27        -1.8340    3.0820    0.7340 c         1 MOL      0.247413
     86 O15        -2.1870    4.1770    0.1900 o         1 MOL     -0.564441
     87 C28        -1.9350    3.3520    3.2410 c3        1 MOL      0.324391
     88 C29        -1.1720    3.6600    4.5550 c3        1 MOL      0.078380
     89 C30        -2.8170    2.0340    3.2970 c3        1 MOL     -0.332269
     90 C31        -1.8480    3.3970    6.0020 c3        1 MOL     -0.235403
     91 H36        -0.0220    4.9290    2.3150 hn        1 MOL      0.327279
     92 H37        -0.5180    2.1010    2.1920 h1        1 MOL      0.081618
     93 H38        -2.5900    4.2130    3.1650 hc        1 MOL     -0.048121
     94 H39        -0.8640    4.7070    4.5100 hc        1 MOL     -0.031229
     95 H40        -0.3340    2.9630    4.5430 hc        1 MOL     -0.031229
     96 H41        -3.4850    1.9620    2.4340 hc        1 MOL      0.039947
     97 H42        -2.1830    1.1590    3.2890 hc        1 MOL      0.039947
     98 H43        -3.4350    2.0860    4.1830 hc        1 MOL      0.039947
     99 H44        -2.8230    3.8900    5.9640 hc        1 MOL      0.057706
    100 H45        -1.9980    2.3220    6.1420 hc        1 MOL      0.057706
    101 H46        -1.2330    3.7330    6.8310 hc        1 MOL      0.057706
    102 N10        -2.1090    1.9490    0.1130 n         1 MOL      0.026294
    103 C32        -2.8570    1.8440   -1.1420 c3        1 MOL      0.149174
    104 C33        -4.2340    1.2990   -0.8420 c         1 MOL      0.225327
    105 O16        -4.5440    0.7720    0.2450 o         1 MOL     -0.345974
    106 C34        -2.1150    0.8570   -2.0680 c3        1 MOL     -0.308071
    107 C35        -0.6800    1.3820   -2.4140 c         1 MOL      0.716472
    108 O17         0.3070    1.0190   -1.7650 o         1 MOL     -0.684070
    109 O18        -0.6720    2.1990   -3.3330 o         1 MOL     -0.684070
    110 H47        -1.6970    1.0680    0.4140 hn        1 MOL      0.233168
    111 H48        -3.0980    2.7850   -1.6430 h1        1 MOL      0.054912
    112 H49        -2.7420    0.8220   -2.9510 hc        1 MOL      0.091198
    113 H50        -1.9570   -0.0810   -1.5300 hc        1 MOL      0.091198
    114 N11        -5.1240    1.3780   -1.7630 n         1 MOL     -0.435819
    115 C36        -6.4870    0.9690   -1.6170 c3        1 MOL      0.461840
    116 C37        -6.6750   -0.5270   -1.3930 c         1 MOL      0.353157
    117 O19        -7.2300   -0.8890   -0.3410 o         1 MOL     -0.514276
    118 C38        -7.4560    1.5590   -2.6690 c3        1 MOL     -0.384676
    119 C39        -8.8920    1.5340   -2.1380 ca        1 MOL      0.144958
    120 C40        -9.8300    0.5540   -2.4460 ca        1 MOL     -0.211491
    121 C41        -9.2340    2.4680   -1.0960 ca        1 MOL     -0.211491
    122 C42       -11.0540    0.4800   -1.7860 ca        1 MOL      0.002759
    123 C43       -10.4880    2.5140   -0.5480 ca        1 MOL      0.002759
    124 C44       -11.4250    1.5680   -0.9540 ca        1 MOL     -0.249912
    125 H51        -4.8970    1.8600   -2.6320 hn        1 MOL      0.273988
    126 H52        -6.8330    1.3820   -0.6680 h1        1 MOL      0.022128
    127 H53        -7.4240    0.9690   -3.5870 hc        1 MOL      0.107348
    128 H54        -7.1860    2.5830   -2.8960 hc        1 MOL      0.107348
    129 H55        -9.5070   -0.1490   -3.1880 ha        1 MOL      0.114492
    130 H56        -8.4620    3.2150   -0.9640 ha        1 MOL      0.114492
    131 H57       -11.6630   -0.3380   -2.1430 ha        1 MOL      0.090526
    132 H58       -10.7490    3.2470    0.2110 ha        1 MOL      0.090526
    133 H59       -12.3800    1.6780   -0.4490 ha        1 MOL      0.126678
    134 N12        -5.9510   -1.4110   -2.1770 n         1 MOL     -0.119278
    135 C45        -5.7400   -2.8610   -1.8370 c3        1 MOL     -0.010676
    136 C46        -5.1580   -3.1490   -0.4310 c         1 MOL      0.292869
    137 O20        -5.0140   -4.3500   -0.1120 o         1 MOL     -0.509272
    138 C47        -4.7190   -3.2220   -2.8970 c3        1 MOL     -0.108051
    139 C48        -5.1520   -2.5100   -4.1560 c3        1 MOL      0.064265
    140 C49        -5.5450   -1.1770   -3.5410 c3        1 MOL     -0.096316
    141 H60        -6.6800   -3.3710   -2.0120 h1        1 MOL      0.094251
    142 H61        -3.7270   -2.8010   -2.7100 hc        1 MOL      0.070431
    143 H62        -4.6900   -4.2910   -3.1040 hc        1 MOL      0.070431
    144 H63        -4.3680   -2.4500   -4.9170 hc        1 MOL      0.011774
    145 H64        -5.9560   -3.0690   -4.6440 hc        1 MOL      0.011774
    146 H65        -4.6060   -0.6300   -3.4220 h1        1 MOL      0.036001
    147 H66        -6.2050   -0.5770   -4.1590 h1        1 MOL      0.036001
    148 N13        -4.6970   -2.1360    0.3600 n         1 MOL     -0.049386
    149 C50        -4.0480   -2.4420    1.7150 c3        1 MOL     -0.043909
    150 C51        -4.9830   -1.8680    2.7970 c         1 MOL      0.380241
    151 O21        -5.1750   -2.4400    3.8790 o         1 MOL     -0.561137
    152 C52        -2.6570   -1.7480    1.6900 c3        1 MOL      0.018311
    153 C53        -1.6730   -2.2860    0.6870 c3        1 MOL     -0.053490
    154 C54        -0.3620   -1.4420    0.5710 c         1 MOL      0.545074
    155 O22         0.6290   -1.8690   -0.0700 o         1 MOL     -0.684228
    156 O23        -0.3810   -0.2260    0.9390 o         1 MOL     -0.684228
    157 H67        -4.6750   -1.1600    0.1040 hn        1 MOL      0.059942
    158 H68        -3.7410   -3.4760    1.8460 h1        1 MOL      0.110462
    159 H69        -2.1550   -2.0130    2.6310 hc        1 MOL     -0.004675
    160 H70        -2.6300   -0.6580    1.6440 hc        1 MOL     -0.004675
    161 H71        -2.1040   -2.3080   -0.3190 hc        1 MOL      0.055362
    162 H72        -1.3920   -3.3070    0.9420 hc        1 MOL      0.055362
    163 N14        -5.6440   -0.8220    2.4120 n         1 MOL      0.001172
    164 C55        -6.7320   -0.1700    3.1410 c3        1 MOL     -0.205256
    165 H73        -6.5780    0.9090    3.1330 h1        1 MOL      0.077213
    166 H74        -7.6830   -0.4040    2.6620 h1        1 MOL      0.077213
    167 H75        -6.7460   -0.5270    4.1710 h1        1 MOL      0.077213
    168 H76        -5.4480   -0.3400    1.5500 hn        1 MOL      0.088537
    169 Ca1         1.9950    0.1930   -0.1090 Ca        1 MOL      1.583128
    170 O24         1.5440    0.3190    2.5840 oh        1 MOL     -0.796225
    171 H77         0.6000    0.1840    2.5570 ho        1 MOL      0.400088
    172 H78         1.7130    0.6640    3.4560 ho        1 MOL      0.400088
    173 O25         4.6320    0.8380    1.1640 oh        1 MOL     -0.796225
    174 H79         4.9100   -0.0720    1.0560 ho        1 MOL      0.400088
    175 H80         4.9060    1.0740    2.0560 ho        1 MOL      0.400088
@<TRIPOS>BOND
     1    1    2 1   
     2    1    4 1   
     3    1    5 1   
     4    1    6 1   
     5    2    3 2   
     6    2    7 1   
     7    7    8 1   
     8    7   15 1   
     9    8    9 1   
    10    8   11 1   
    11    8   16 1   
    12    9   10 2   
    13    9   19 1   
    14   11   12 1   
    15   11   17 1   
    16   11   18 1   
    17   12   13 1   
    18   12   14 1   
    19   19   20 1   
    20   19   24 1   
    21   20   21 1   
    22   20   23 1   
    23   20   25 1   
    24   21   22 2   
    25   21   29 1   
    26   23   26 1   
    27   23   27 1   
    28   23   28 1   
    29   29   30 1   
    30   29   37 1   
    31   30   31 1   
    32   30   33 1   
    33   30   38 1   
    34   31   32 2   
    35   31   41 1   
    36   33   34 1   
    37   33   39 1   
    38   33   40 1   
    39   34   35 1   
    40   34   36 1   
    41   41   42 1   
    42   41   45 1   
    43   42   43 1   
    44   42   46 1   
    45   42   47 1   
    46   43   44 2   
    47   43   48 1   
    48   48   49 1   
    49   48   56 1   
    50   49   50 1   
    51   49   52 1   
    52   49   57 1   
    53   50   51 2   
    54   50   62 1   
    55   52   53 1   
    56   52   58 1   
    57   52   59 1   
    58   53   54 1   
    59   53   55 2   
    60   54   60 1   
    61   54   61 1   
    62   62   63 1   
    63   62   66 1   
    64   63   64 1   
    65   63   67 1   
    66   63   68 1   
    67   64   65 2   
    68   64   69 1   
    69   69   70 1   
    70   69   76 1   
    71   70   71 1   
    72   70   73 1   
    73   70   77 1   
    74   71   72 2   
    75   71   83 1   
    76   73   74 1   
    77   73   75 1   
    78   73   78 1   
    79   74   80 1   
    80   74   81 1   
    81   74   82 1   
    82   75   79 1   
    83   83   84 1   
    84   83   91 1   
    85   84   85 1   
    86   84   87 1   
    87   84   92 1   
    88   85   86 2   
    89   85  102 1   
    90   87   88 1   
    91   87   89 1   
    92   87   93 1   
    93   88   90 1   
    94   88   94 1   
    95   88   95 1   
    96   89   96 1   
    97   89   97 1   
    98   89   98 1   
    99   90   99 1   
   100   90  100 1   
   101   90  101 1   
   102  102  103 1   
   103  102  110 1   
   104  103  104 1   
   105  103  106 1   
   106  103  111 1   
   107  104  105 2   
   108  104  114 1   
   109  106  107 1   
   110  106  112 1   
   111  106  113 1   
   112  107  108 1   
   113  107  109 1   
   114  114  115 1   
   115  114  125 1   
   116  115  116 1   
   117  115  118 1   
   118  115  126 1   
   119  116  117 2   
   120  116  134 1   
   121  118  119 1   
   122  118  127 1   
   123  118  128 1   
   124  119  120 ar  
   125  119  121 ar  
   126  120  122 ar  
   127  120  129 1   
   128  121  123 ar  
   129  121  130 1   
   130  122  124 ar  
   131  122  131 1   
   132  123  124 ar  
   133  123  132 1   
   134  124  133 1   
   135  134  135 1   
   136  134  140 1   
   137  135  136 1   
   138  135  138 1   
   139  135  141 1   
   140  136  137 2   
   141  136  148 1   
   142  138  139 1   
   143  138  142 1   
   144  138  143 1   
   145  139  140 1   
   146  139  144 1   
   147  139  145 1   
   148  140  146 1   
   149  140  147 1   
   150  148  149 1   
   151  148  157 1   
   152  149  150 1   
   153  149  152 1   
   154  149  158 1   
   155  150  151 2   
   156  150  163 1   
   157  152  153 1   
   158  152  159 1   
   159  152  160 1   
   160  153  154 1   
   161  153  161 1   
   162  153  162 1   
   163  154  155 1   
   164  154  156 1   
   165  163  164 1   
   166  163  168 1   
   167  164  165 1   
   168  164  166 1   
   169  164  167 1   
   170  170  171 1   
   171  170  172 1   
   172  173  174 1   
   173  173  175 1   
@<TRIPOS>SUBSTRUCTURE
     1 MOL         1 TEMP              0 ****  ****    0 ROOT
