@<TRIPOS>MOLECULE
MOL
  183   181     1     0     0
SMALL
resp


@<TRIPOS>ATOM
      1 C1         -0.0560    1.4300    6.3110 c3        1 MOL     -0.326747
      2 C2         -0.5670    1.4590    4.8970 c         1 MOL      0.810916
      3 O1          0.2740    1.7540    4.0960 o         1 MOL     -0.595180
      4 H1         -0.8860    1.2430    6.9930 hc        1 MOL      0.066121
      5 H2          0.6840    0.6360    6.4140 hc        1 MOL      0.066121
      6 H3          0.4030    2.3890    6.5520 hc        1 MOL      0.066121
      7 N1         -1.8610    1.2400    4.6120 n         1 MOL     -0.737395
      8 C3         -2.4480    1.2220    3.2570 c3        1 MOL      0.133182
      9 C4         -2.8540    2.6770    2.9330 c         1 MOL      0.610059
     10 O2         -3.5550    3.2820    3.7750 o         1 MOL     -0.602829
     11 C5         -3.6440    0.2760    3.3020 c3        1 MOL     -0.304181
     12 C6         -4.5890    0.1710    2.0770 c         1 MOL      0.738154
     13 O3         -5.7620   -0.2160    2.2530 o         1 MOL     -0.624245
     14 O4         -4.2550    0.6720    0.9620 o         1 MOL     -0.624245
     15 H4         -2.4770    1.0740    5.3860 hn        1 MOL      0.373269
     16 H5         -1.7620    0.8220    2.5080 h1        1 MOL      0.075042
     17 H6         -4.2140    0.4990    4.1980 hc        1 MOL      0.054111
     18 H7         -3.1510   -0.6950    3.4310 hc        1 MOL      0.054111
     19 N2         -2.3810    3.1770    1.8300 n         1 MOL     -0.101828
     20 C7         -2.6270    4.6060    1.4710 c3        1 MOL     -0.367915
     21 C8         -3.7340    4.7880    0.4790 c         1 MOL      0.606728
     22 O5         -4.2710    5.8920    0.2620 o         1 MOL     -0.587800
     23 C9         -1.3000    5.2280    0.8980 c3        1 MOL      0.354622
     24 C10        -0.9860    4.7410   -0.4790 c3        1 MOL     -0.142702
     25 C11        -0.1100    5.1480    1.8130 c3        1 MOL     -0.316292
     26 C12         0.2660    5.4330   -1.1260 c3        1 MOL     -0.325200
     27 H8         -1.6830    2.6760    1.3030 hn        1 MOL      0.128242
     28 H9         -2.9340    5.0440    2.4190 h1        1 MOL      0.129928
     29 H10        -1.4950    6.2810    0.7110 hc        1 MOL     -0.039308
     30 H11        -1.8290    5.0480   -1.1100 hc        1 MOL      0.092221
     31 H12        -0.8210    3.6730   -0.5270 hc        1 MOL      0.092221
     32 H13         0.6360    5.8570    1.4750 hc        1 MOL      0.068601
     33 H14        -0.4540    5.3830    2.8180 hc        1 MOL      0.068601
     34 H15         0.3580    4.1770    1.6740 hc        1 MOL      0.068601
     35 H16         0.1530    6.5160   -1.1330 hc        1 MOL      0.091467
     36 H17         1.1810    5.1690   -0.5990 hc        1 MOL      0.091467
     37 H18         0.4370    5.0510   -2.1340 hc        1 MOL      0.091467
     38 N3         -4.1210    3.7060   -0.2770 n         1 MOL     -0.356651
     39 C13        -5.0200    3.9100   -1.4070 c3        1 MOL      0.009570
     40 C14        -6.3580    3.0590   -1.2770 c         1 MOL      0.427891
     41 O6         -7.2850    3.1540   -2.1240 o         1 MOL     -0.531378
     42 C15        -4.3380    3.7980   -2.8060 c3        1 MOL     -0.165860
     43 C16        -3.6090    2.4650   -3.1050 c         1 MOL      0.711803
     44 O7         -3.6510    1.4480   -2.3280 o         1 MOL     -0.658271
     45 O8         -2.9480    2.3180   -4.1190 o         1 MOL     -0.658271
     46 H19        -3.8500    2.7780    0.0220 hn        1 MOL      0.070782
     47 H20        -5.4270    4.9210   -1.4350 h1        1 MOL      0.106990
     48 H21        -3.4860    4.4570   -2.9570 hc        1 MOL      0.042471
     49 H22        -5.0630    3.9250   -3.6070 hc        1 MOL      0.042471
     50 N4         -6.5180    2.2600   -0.1780 n         1 MOL     -0.251887
     51 C17        -7.7850    1.6180    0.1730 c3        1 MOL     -0.358032
     52 C18        -8.1260    0.3180   -0.4680 c         1 MOL      0.577707
     53 O9         -9.3190   -0.0840   -0.5560 o         1 MOL     -0.615848
     54 H23        -5.7750    2.0820    0.4700 hn        1 MOL      0.273856
     55 H24        -8.5460    2.3420   -0.1590 h1        1 MOL      0.149110
     56 H25        -7.8050    1.5850    1.2650 h1        1 MOL      0.149110
     57 N5         -7.1470   -0.4200   -0.9950 n         1 MOL     -0.181885
     58 C19        -7.3260   -1.7850   -1.4330 c3        1 MOL      0.015905
     59 C20        -7.3180   -2.8640   -0.2640 c         1 MOL      0.385955
     60 O10        -7.7640   -3.9990   -0.3750 o         1 MOL     -0.568016
     61 C21        -6.2970   -2.1300   -2.5010 c3        1 MOL     -0.172077
     62 C22        -4.8450   -1.8120   -2.1930 c         1 MOL      0.603303
     63 O11        -4.1060   -1.5730   -3.1920 o         1 MOL     -0.650854
     64 O12        -4.3780   -1.8000   -1.0420 o         1 MOL     -0.650854
     65 H26        -6.2240   -0.0110   -0.8800 hn        1 MOL      0.163110
     66 H27        -8.2570   -1.8540   -1.9940 h1        1 MOL      0.078819
     67 H28        -6.6290   -1.6620   -3.4210 hc        1 MOL      0.056484
     68 H29        -6.4060   -3.1980   -2.6560 hc        1 MOL      0.056484
     69 N6         -6.6200   -2.4950    0.8140 n         1 MOL     -0.068270
     70 C23        -6.4340   -3.3680    1.9820 c3        1 MOL     -0.003775
     71 C24        -5.1690   -4.1880    1.8100 c         1 MOL      0.507305
     72 O13        -5.1020   -5.1740    2.5080 o         1 MOL     -0.593812
     73 H30        -6.0620   -1.6600    0.7680 hn        1 MOL     -0.027053
     74 H31        -7.2740   -4.0250    2.1960 h1        1 MOL      0.046075
     75 H32        -6.3360   -2.7640    2.8840 h1        1 MOL      0.046075
     76 N7         -4.1790   -3.7720    0.9630 n         1 MOL     -0.194081
     77 C25        -2.8610   -4.4920    0.8760 c3        1 MOL     -0.099795
     78 C26        -1.7710   -3.3940    1.0340 c         1 MOL      0.621061
     79 O14        -2.0690   -2.2090    0.8760 o         1 MOL     -0.635605
     80 C27        -2.7190   -5.3910   -0.3310 c3        1 MOL      0.090958
     81 C28        -2.8770   -4.8020   -1.7140 c3        1 MOL     -0.225233
     82 C29        -1.7080   -3.9130   -2.1610 c         1 MOL      0.583333
     83 N8         -0.7580   -4.5120   -2.8270 n         1 MOL     -0.740673
     84 O15        -1.6380   -2.7380   -1.8430 o         1 MOL     -0.503228
     85 H33        -4.3300   -2.9560    0.3840 hn        1 MOL      0.221066
     86 H34        -2.7720   -5.0810    1.7860 h1        1 MOL      0.056509
     87 H35        -3.3920   -6.2440   -0.2350 hc        1 MOL     -0.011399
     88 H36        -1.7520   -5.8920   -0.3900 hc        1 MOL     -0.011399
     89 H37        -3.8300   -4.3000   -1.8180 hc        1 MOL      0.068241
     90 H38        -2.7910   -5.6790   -2.3510 hc        1 MOL      0.068241
     91 H39        -0.9180   -5.4570   -3.1580 hn        1 MOL      0.349968
     92 H40         0.1210   -4.0390   -2.9820 hn        1 MOL      0.349968
     93 N9         -0.5230   -3.8280    1.3710 n         1 MOL     -0.457072
     94 C30         0.6680   -2.9600    1.5160 c3        1 MOL      0.043021
     95 C31         1.8000   -3.3220    0.5860 c         1 MOL      0.361426
     96 O16         2.5100   -4.3230    0.8430 o         1 MOL     -0.550683
     97 C32         1.0320   -2.8430    2.9830 c3        1 MOL      0.117033
     98 C33         2.2870   -1.9990    3.2840 c3        1 MOL     -0.382726
     99 C34        -0.1100   -2.2500    3.8840 c3        1 MOL     -0.382726
    100 H41        -0.3960   -4.8010    1.5720 hn        1 MOL      0.285558
    101 H42         0.2840   -1.9800    1.2470 h1        1 MOL      0.180780
    102 H43         1.1040   -3.8630    3.3470 hc        1 MOL      0.014443
    103 H44         2.4570   -1.9520    4.3580 hc        1 MOL      0.097320
    104 H45         3.1470   -2.3740    2.7270 hc        1 MOL      0.097320
    105 H46         2.1370   -0.9390    3.0440 hc        1 MOL      0.097320
    106 H47        -1.1030   -2.5750    3.5710 hc        1 MOL      0.097320
    107 H48         0.0830   -2.5960    4.9050 hc        1 MOL      0.097320
    108 H49         0.0240   -1.1850    4.0610 hc        1 MOL      0.097320
    109 N10         2.0780   -2.5820   -0.4800 n         1 MOL     -0.087419
    110 C35         3.2490   -2.5490   -1.2840 c3        1 MOL      0.030291
    111 C36         4.4750   -1.9910   -0.5530 c         1 MOL      0.345509
    112 O17         4.2680   -1.1890    0.3840 o         1 MOL     -0.253848
    113 C37         2.9370   -1.6520   -2.5010 c3        1 MOL     -0.421462
    114 C38         1.7850   -2.2910   -3.3050 c         1 MOL      0.756570
    115 N11         0.6100   -1.6650   -3.2130 n         1 MOL     -0.822342
    116 O18         1.8850   -3.3330   -3.8800 o         1 MOL     -0.616653
    117 H50         1.3500   -1.9170   -0.7040 hn        1 MOL      0.106202
    118 H51         3.4610   -3.5440   -1.6780 h1        1 MOL      0.057629
    119 H52         3.7510   -1.5100   -3.2060 hc        1 MOL      0.119080
    120 H53         2.6240   -0.6650   -2.1630 hc        1 MOL      0.119080
    121 H54         0.5380   -1.0290   -2.4380 hn        1 MOL      0.399891
    122 H55        -0.1520   -2.0150   -3.7740 hn        1 MOL      0.399891
    123 N12         5.7470   -2.2630   -0.9710 n         1 MOL     -0.454460
    124 C39         6.9330   -1.6540   -0.3470 c3        1 MOL      0.107663
    125 C40         6.8780   -0.1080   -0.2680 c         1 MOL      0.591269
    126 O19         7.3340    0.4890    0.6990 o         1 MOL     -0.511266
    127 C41         8.2160   -2.1920   -1.0340 c3        1 MOL     -0.296306
    128 C42         9.4690   -1.6730   -0.4130 ca        1 MOL      0.136729
    129 C43         9.9870   -2.4350    0.5760 ca        1 MOL     -0.200337
    130 C44        10.1650   -0.5180   -0.8780 ca        1 MOL     -0.200337
    131 C45        11.2470   -2.0560    1.1430 ca        1 MOL     -0.228291
    132 C46        11.3830   -0.0920   -0.3710 ca        1 MOL     -0.228291
    133 C47        11.9680   -0.9270    0.7070 ca        1 MOL      0.300865
    134 O20        13.1330   -0.6590    1.3200 oh        1 MOL     -0.529468
    135 H56         5.8830   -2.8510   -1.7780 hn        1 MOL      0.298815
    136 H57         7.0960   -1.9890    0.6800 h1        1 MOL      0.074752
    137 H58         8.3400   -1.9010   -2.0800 hc        1 MOL      0.092517
    138 H59         8.1130   -3.2700   -0.9130 hc        1 MOL      0.092517
    139 H60         9.3780   -3.1830    1.0660 ha        1 MOL      0.150998
    140 H61         9.6700    0.0320   -1.6600 ha        1 MOL      0.150998
    141 H62        11.6190   -2.5740    2.0120 ha        1 MOL      0.135213
    142 H63        11.9380    0.7340   -0.7980 ha        1 MOL      0.135213
    143 H64        13.4820    0.1780    1.0150 ho        1 MOL      0.403279
    144 N13         6.3440    0.5360   -1.3510 n         1 MOL     -0.434308
    145 C48         6.1830    2.0440   -1.4550 c3        1 MOL     -0.073039
    146 C49         5.2780    2.7160   -0.4480 c         1 MOL      0.384011
    147 O21         5.2670    3.9360   -0.2290 o         1 MOL     -0.517817
    148 C50         5.8220    2.4800   -2.8610 c3        1 MOL      0.079570
    149 C51         4.3690    2.1160   -3.2220 c3        1 MOL     -0.015663
    150 C52         4.0390    2.9070   -4.5520 c         1 MOL      0.664378
    151 O22         4.2860    4.0940   -4.7310 o         1 MOL     -0.717728
    152 O23         3.5780    2.1930   -5.4830 o         1 MOL     -0.717728
    153 H65         6.1620    0.0070   -2.1870 hn        1 MOL      0.284912
    154 H66         7.2110    2.4180   -1.4520 h1        1 MOL      0.074692
    155 H67         6.4600    1.9580   -3.5670 hc        1 MOL     -0.007865
    156 H68         5.9170    3.5630   -2.9090 hc        1 MOL     -0.007865
    157 H69         3.6260    2.4780   -2.5100 hc        1 MOL     -0.045004
    158 H70         4.2470    1.0600   -3.4370 hc        1 MOL     -0.045004
    159 N14         4.4850    1.9110    0.2420 n         1 MOL     -0.157137
    160 C53         3.5330    2.2170    1.3450 c3        1 MOL     -0.002944
    161 C54         4.1590    1.9530    2.7050 c         1 MOL      0.415033
    162 O24         4.0280    2.7360    3.6480 o         1 MOL     -0.548490
    163 C55         2.2750    1.3340    1.1850 c3        1 MOL      0.117872
    164 C56         1.5740    1.7230   -0.1380 c3        1 MOL     -0.238031
    165 C57         0.2560    0.9020   -0.2020 c         1 MOL      0.626407
    166 O25        -0.7870    1.2880    0.3530 o         1 MOL     -0.747333
    167 O26         0.2110   -0.1910   -0.9100 o         1 MOL     -0.747333
    168 H71         4.5580    0.9640   -0.1110 hn        1 MOL      0.122722
    169 H72         3.1980    3.2510    1.3330 h1        1 MOL      0.075205
    170 H73         1.6430    1.6080    2.0300 hc        1 MOL      0.048273
    171 H74         2.4920    0.2700    1.1680 hc        1 MOL      0.048273
    172 H75         2.1830    1.5740   -1.0270 hc        1 MOL      0.122667
    173 H76         1.4320    2.7970   -0.1100 hc        1 MOL      0.122667
    174 N15         4.9020    0.8450    2.7680 n         1 MOL     -0.037043
    175 C58         5.6670    0.3000    3.8960 c3        1 MOL     -0.161967
    176 H77         6.6160   -0.0940    3.5350 h1        1 MOL      0.065338
    177 H78         5.8550    1.0900    4.6240 h1        1 MOL      0.065338
    178 H79         5.0970   -0.5010    4.3680 h1        1 MOL      0.065338
    179 H80         5.0600    0.3440    1.9010 hn        1 MOL     -0.014319
    180 Ca1        -2.4310   -0.3160   -0.9780 Ca        1 MOL      1.725669
    181 O27        -1.4890    0.2740   -3.3740 oh        1 MOL     -0.850188
    182 H81        -2.1440    0.9400   -3.5750 ho        1 MOL      0.389529
    183 H82        -0.6670    0.6230   -3.7050 ho        1 MOL      0.389529
@<TRIPOS>BOND
     1    1    2 1   
     2    1    4 1   
     3    1    5 1   
     4    1    6 1   
     5    2    3 2   
     6    2    7 1   
     7    7    8 1   
     8    7   15 1   
     9    8    9 1   
    10    8   11 1   
    11    8   16 1   
    12    9   10 2   
    13    9   19 1   
    14   11   12 1   
    15   11   17 1   
    16   11   18 1   
    17   12   13 1   
    18   12   14 1   
    19   19   20 1   
    20   19   27 1   
    21   20   21 1   
    22   20   23 1   
    23   20   28 1   
    24   21   22 2   
    25   21   38 1   
    26   23   24 1   
    27   23   25 1   
    28   23   29 1   
    29   24   26 1   
    30   24   30 1   
    31   24   31 1   
    32   25   32 1   
    33   25   33 1   
    34   25   34 1   
    35   26   35 1   
    36   26   36 1   
    37   26   37 1   
    38   38   39 1   
    39   38   46 1   
    40   39   40 1   
    41   39   42 1   
    42   39   47 1   
    43   40   41 2   
    44   40   50 1   
    45   42   43 1   
    46   42   48 1   
    47   42   49 1   
    48   43   44 1   
    49   43   45 1   
    50   50   51 1   
    51   50   54 1   
    52   51   52 1   
    53   51   55 1   
    54   51   56 1   
    55   52   53 2   
    56   52   57 1   
    57   57   58 1   
    58   57   65 1   
    59   58   59 1   
    60   58   61 1   
    61   58   66 1   
    62   59   60 2   
    63   59   69 1   
    64   61   62 1   
    65   61   67 1   
    66   61   68 1   
    67   62   63 1   
    68   62   64 1   
    69   69   70 1   
    70   69   73 1   
    71   70   71 1   
    72   70   74 1   
    73   70   75 1   
    74   71   72 2   
    75   71   76 1   
    76   76   77 1   
    77   76   85 1   
    78   77   78 1   
    79   77   80 1   
    80   77   86 1   
    81   78   79 2   
    82   78   93 1   
    83   80   81 1   
    84   80   87 1   
    85   80   88 1   
    86   81   82 1   
    87   81   89 1   
    88   81   90 1   
    89   82   83 1   
    90   82   84 2   
    91   83   91 1   
    92   83   92 1   
    93   93   94 1   
    94   93  100 1   
    95   94   95 1   
    96   94   97 1   
    97   94  101 1   
    98   95   96 2   
    99   95  109 1   
   100   97   98 1   
   101   97   99 1   
   102   97  102 1   
   103   98  103 1   
   104   98  104 1   
   105   98  105 1   
   106   99  106 1   
   107   99  107 1   
   108   99  108 1   
   109  109  110 1   
   110  109  117 1   
   111  110  111 1   
   112  110  113 1   
   113  110  118 1   
   114  111  112 2   
   115  111  123 1   
   116  113  114 1   
   117  113  119 1   
   118  113  120 1   
   119  114  115 1   
   120  114  116 2   
   121  115  121 1   
   122  115  122 1   
   123  123  124 1   
   124  123  135 1   
   125  124  125 1   
   126  124  127 1   
   127  124  136 1   
   128  125  126 2   
   129  125  144 1   
   130  127  128 1   
   131  127  137 1   
   132  127  138 1   
   133  128  129 ar  
   134  128  130 ar  
   135  129  131 ar  
   136  129  139 1   
   137  130  132 ar  
   138  130  140 1   
   139  131  133 ar  
   140  131  141 1   
   141  132  133 ar  
   142  132  142 1   
   143  133  134 1   
   144  134  143 1   
   145  144  145 1   
   146  144  153 1   
   147  145  146 1   
   148  145  148 1   
   149  145  154 1   
   150  146  147 2   
   151  146  159 1   
   152  148  149 1   
   153  148  155 1   
   154  148  156 1   
   155  149  150 1   
   156  149  157 1   
   157  149  158 1   
   158  150  151 1   
   159  150  152 1   
   160  159  160 1   
   161  159  168 1   
   162  160  161 1   
   163  160  163 1   
   164  160  169 1   
   165  161  162 2   
   166  161  174 1   
   167  163  164 1   
   168  163  170 1   
   169  163  171 1   
   170  164  165 1   
   171  164  172 1   
   172  164  173 1   
   173  165  166 1   
   174  165  167 1   
   175  174  175 1   
   176  174  179 1   
   177  175  176 1   
   178  175  177 1   
   179  175  178 1   
   180  181  182 1   
   181  181  183 1   
@<TRIPOS>SUBSTRUCTURE
     1 MOL         1 TEMP              0 ****  ****    0 ROOT
