@<TRIPOS>MOLECULE
MOL
  178   175     1     0     0
SMALL
resp


@<TRIPOS>ATOM
      1 C1          1.0810   -2.4140    5.7760 c3        1 MOL     -0.290009
      2 C2          1.1120   -2.0210    4.3530 c         1 MOL      0.865984
      3 O1          0.1760   -2.3320    3.6620 o         1 MOL     -0.648762
      4 H1          0.3300   -3.1910    5.9210 hc        1 MOL      0.062851
      5 H2          2.0590   -2.7940    6.0700 hc        1 MOL      0.062851
      6 H3          0.8300   -1.5470    6.3880 hc        1 MOL      0.062851
      7 N1          2.1580   -1.4870    3.7980 n         1 MOL     -0.742038
      8 C3          2.5800   -1.4740    2.3600 c3        1 MOL      0.446091
      9 C4          2.9920   -2.8580    1.8520 c         1 MOL      0.452815
     10 O2          3.9930   -3.4080    2.3910 o         1 MOL     -0.580031
     11 C5          3.6390   -0.3780    2.0780 c3        1 MOL     -0.105026
     12 C6          3.8070   -0.1350    0.5860 c         1 MOL      0.086561
     13 O3          4.5320    0.7930    0.1580 o         1 MOL     -0.510114
     14 O4          3.2180   -0.9390   -0.1600 o         1 MOL     -0.510114
     15 H4          2.8820   -1.2190    4.4510 hn        1 MOL      0.299661
     16 H5          1.7130   -1.1320    1.7840 h1        1 MOL     -0.053491
     17 H6          4.4870   -0.7950    2.6270 hc        1 MOL      0.020599
     18 H7          3.1510    0.4780    2.5330 hc        1 MOL      0.020599
     19 N2          2.2770   -3.5240    0.9240 n         1 MOL     -0.336481
     20 C7          2.6190   -4.8690    0.4440 c3        1 MOL      0.247629
     21 C8          3.9160   -4.8590   -0.4190 c         1 MOL      0.292951
     22 O5          4.6440   -5.8350   -0.5200 o         1 MOL     -0.552499
     23 C9          1.4080   -5.4190   -0.3000 c3        1 MOL     -0.238699
     24 H8          1.4680   -3.1110    0.4780 hn        1 MOL      0.224980
     25 H9          2.7550   -5.5210    1.3010 h1        1 MOL      0.013732
     26 H10         1.4280   -6.4910   -0.4640 hc        1 MOL      0.067789
     27 H11         0.5160   -5.2010    0.2970 hc        1 MOL      0.067789
     28 H12         1.2890   -4.8570   -1.2200 hc        1 MOL      0.067789
     29 N3          4.1670   -3.7530   -1.1190 n         1 MOL      0.043283
     30 C10         5.4050   -3.5070   -1.7790 c3        1 MOL     -0.040067
     31 C11         6.5270   -3.0550   -0.8220 c         1 MOL      0.328588
     32 O6          7.6680   -3.0030   -1.1950 o         1 MOL     -0.558695
     33 C12         5.2690   -2.3510   -2.7790 c3        1 MOL     -0.172870
     34 C13         4.0160   -2.5820   -3.5600 c         1 MOL      0.625336
     35 O7          4.0720   -3.2400   -4.6340 o         1 MOL     -0.698170
     36 O8          2.9500   -2.1000   -3.2500 o         1 MOL     -0.698170
     37 H13         3.5090   -2.9800   -1.0740 hn        1 MOL      0.049882
     38 H14         5.7770   -4.3860   -2.2970 h1        1 MOL      0.103308
     39 H15         6.1070   -2.4440   -3.4690 hc        1 MOL      0.062062
     40 H16         5.1120   -1.3840   -2.2980 hc        1 MOL      0.062062
     41 N4          6.1860   -2.6170    0.3430 n         1 MOL      0.141147
     42 C14         7.2030   -2.2950    1.4100 c3        1 MOL     -0.325821
     43 C15         7.7470   -0.8350    1.3070 c         1 MOL      0.522108
     44 O9          8.7580   -0.5150    1.9380 o         1 MOL     -0.577128
     45 H17         5.3280   -3.0050    0.6910 hn        1 MOL      0.066892
     46 H18         8.0910   -2.9190    1.3680 h1        1 MOL      0.132412
     47 H19         6.6490   -2.4490    2.3360 h1        1 MOL      0.132412
     48 N5          7.2770    0.0290    0.4360 n         1 MOL     -0.214067
     49 C16         7.9520    1.2740    0.0390 c3        1 MOL     -0.087006
     50 C17         7.6440    2.4520    0.9400 c         1 MOL      0.552454
     51 O10         8.5360    3.1260    1.3610 o         1 MOL     -0.539460
     52 C18         7.6440    1.4440   -1.4440 c3        1 MOL     -0.291845
     53 C19         8.3250    2.6800   -1.9830 c         1 MOL      0.745838
     54 N6          9.5970    2.7310   -2.2460 n         1 MOL     -0.820139
     55 O11         7.7030    3.7360   -2.3070 o         1 MOL     -0.589368
     56 H20         6.4770   -0.2430   -0.1230 hn        1 MOL      0.275495
     57 H21         9.0040    1.0600    0.2380 h1        1 MOL      0.096334
     58 H22         6.5830    1.5130   -1.6770 hc        1 MOL      0.086104
     59 H23         7.9240    0.4990   -1.9080 hc        1 MOL      0.086104
     60 H24        10.2220    1.9810   -1.9990 hn        1 MOL      0.363369
     61 H25        10.0180    3.5930   -2.5910 hn        1 MOL      0.363369
     62 N7          6.3190    2.7510    1.1380 n         1 MOL     -0.270597
     63 C20         5.8640    4.0030    1.6800 c3        1 MOL      0.001060
     64 C21         4.4020    4.3280    1.5040 c         1 MOL      0.574000
     65 O12         4.0550    5.4320    1.9020 o         1 MOL     -0.604328
     66 H26         5.6440    2.0850    0.7950 hn        1 MOL      0.081579
     67 H27         6.4820    4.8570    1.4090 h1        1 MOL      0.052710
     68 H28         6.0040    3.9180    2.7590 h1        1 MOL      0.052710
     69 N8          3.5830    3.4490    0.9720 n         1 MOL     -0.428547
     70 C22         2.1740    3.8150    0.7660 c3        1 MOL     -0.052793
     71 C23         1.2140    2.6510    0.7720 c         1 MOL      0.331925
     72 O13         1.4380    1.5040    0.2160 o         1 MOL     -0.225912
     73 C24         2.0170    4.4880   -0.6390 c3        1 MOL      0.429003
     74 C25         2.1340    6.0440   -0.3600 c3        1 MOL     -0.600694
     75 O14         2.9440    4.1130   -1.6740 oh        1 MOL     -0.670499
     76 H29         3.9300    2.5860    0.5830 hn        1 MOL      0.400193
     77 H30         1.7930    4.5250    1.4960 h1        1 MOL      0.142911
     78 H31         1.0340    4.3040   -1.0720 h1        1 MOL      0.011810
     79 H32         2.5210    4.4140   -2.4760 ho        1 MOL      0.429912
     80 H33         1.6920    6.4490   -1.2690 hc        1 MOL      0.154425
     81 H34         1.5630    6.3440    0.5130 hc        1 MOL      0.154425
     82 H35         3.1770    6.3520   -0.3750 hc        1 MOL      0.154425
     83 N9          0.0450    2.8700    1.3160 n         1 MOL     -0.300419
     84 C26        -1.0700    2.0250    1.1350 c3        1 MOL     -0.065177
     85 C27        -2.1370    2.5860    0.2470 c         1 MOL      0.406104
     86 O15        -2.5180    3.7500    0.3070 o         1 MOL     -0.566881
     87 C28        -1.7150    1.7440    2.5420 c3        1 MOL      0.482054
     88 C29        -2.0040    2.9370    3.4460 c3        1 MOL     -0.015081
     89 C30        -0.9350    0.6720    3.2750 c3        1 MOL     -0.492979
     90 C31        -2.6950    2.5870    4.7280 c3        1 MOL     -0.120668
     91 H36        -0.1610    3.6880    1.8630 hn        1 MOL      0.177223
     92 H37        -0.7180    1.0290    0.8780 h1        1 MOL     -0.023565
     93 H38        -2.6960    1.3460    2.2830 hc        1 MOL     -0.161237
     94 H39        -2.6610    3.6170    2.8980 hc        1 MOL      0.004441
     95 H40        -1.0270    3.3570    3.6860 hc        1 MOL      0.004441
     96 H41        -1.4330    0.3770    4.1960 hc        1 MOL      0.112181
     97 H42        -0.7890   -0.2410    2.6930 hc        1 MOL      0.112181
     98 H43         0.0350    1.0860    3.5490 hc        1 MOL      0.112181
     99 H44        -3.6190    2.0280    4.5380 hc        1 MOL      0.020092
    100 H45        -2.0310    2.0770    5.4190 hc        1 MOL      0.020092
    101 H46        -3.0120    3.5330    5.1840 hc        1 MOL      0.020092
    102 N10        -2.6880    1.8160   -0.7260 n         1 MOL     -0.215929
    103 C32        -3.9180    1.9160   -1.5040 c3        1 MOL      0.236962
    104 C33        -5.1150    1.4440   -0.7280 c         1 MOL      0.358294
    105 O16        -5.0210    0.6470    0.2470 o         1 MOL     -0.293325
    106 C34        -3.8460    1.1130   -2.8470 c3        1 MOL     -0.408841
    107 C35        -2.6550    1.4540   -3.8180 c         1 MOL      0.793986
    108 O17        -2.2430    0.5740   -4.6190 o         1 MOL     -0.721506
    109 O18        -2.0500    2.4950   -3.5950 o         1 MOL     -0.721506
    110 H47        -2.1290    0.9880   -0.8750 hn        1 MOL      0.280259
    111 H48        -4.0400    2.9670   -1.7520 h1        1 MOL      0.030571
    112 H49        -4.7580    1.3260   -3.4210 hc        1 MOL      0.074078
    113 H50        -3.8280    0.0560   -2.6130 hc        1 MOL      0.074078
    114 N11        -6.3340    1.7730   -1.1800 n         1 MOL     -0.653300
    115 C36        -7.5990    1.3160   -0.5710 c3        1 MOL      0.483281
    116 C37        -7.5960   -0.1610   -0.2180 c         1 MOL      0.188427
    117 O19        -7.9710   -0.4880    0.9440 o         1 MOL     -0.477070
    118 C38        -8.7620    1.7750   -1.4470 c3        1 MOL     -0.338835
    119 C39       -10.1380    1.4820   -0.8100 ca        1 MOL      0.172417
    120 C40       -10.4310    2.0690    0.4380 ca        1 MOL     -0.189457
    121 C41       -11.1400    0.8370   -1.4990 ca        1 MOL     -0.189457
    122 C42       -11.7160    1.9810    0.9940 ca        1 MOL     -0.057919
    123 C43       -12.4530    0.8060   -1.0270 ca        1 MOL     -0.057919
    124 C44       -12.7270    1.3090    0.2540 ca        1 MOL     -0.187643
    125 H51        -6.4720    2.3170   -2.0190 hn        1 MOL      0.327675
    126 H52        -7.6600    1.8890    0.3520 h1        1 MOL      0.060969
    127 H53        -8.7980    1.4100   -2.4750 hc        1 MOL      0.086389
    128 H54        -8.6530    2.8470   -1.5360 hc        1 MOL      0.086389
    129 H55        -9.6420    2.6690    0.8750 ha        1 MOL      0.109145
    130 H56       -10.8490    0.4170   -2.4510 ha        1 MOL      0.109145
    131 H57       -12.0050    2.5400    1.8650 ha        1 MOL      0.101174
    132 H58       -13.1840    0.3450   -1.6630 ha        1 MOL      0.101174
    133 H59       -13.6910    1.0390    0.6690 ha        1 MOL      0.122854
    134 N12        -7.0910   -1.1300   -1.0900 n         1 MOL      0.093523
    135 C45        -7.2040   -2.5130   -0.6030 c3        1 MOL      0.022963
    136 C46        -6.1170   -2.8560    0.4140 c         1 MOL      0.401781
    137 O20        -6.3700   -3.4830    1.4210 o         1 MOL     -0.525099
    138 C47        -6.9620   -3.3780   -1.9060 c3        1 MOL     -0.110721
    139 C48        -7.2800   -2.4600   -3.0700 c3        1 MOL      0.047527
    140 C49        -6.9150   -1.0150   -2.5580 c3        1 MOL     -0.291097
    141 H60        -8.1610   -2.6270   -0.0890 h1        1 MOL      0.068311
    142 H61        -5.9130   -3.6350   -1.9970 hc        1 MOL      0.049217
    143 H62        -7.6590   -4.2170   -1.8940 hc        1 MOL      0.049217
    144 H63        -6.7470   -2.7010   -3.9910 hc        1 MOL      0.015248
    145 H64        -8.3350   -2.5370   -3.2990 hc        1 MOL      0.015248
    146 H65        -5.8650   -0.8630   -2.7850 h1        1 MOL      0.119465
    147 H66        -7.5880   -0.2460   -2.9470 h1        1 MOL      0.119465
    148 N13        -4.9220   -2.3110    0.3600 n         1 MOL     -0.295045
    149 C50        -3.9490   -2.4430    1.4390 c3        1 MOL     -0.093585
    150 C51        -4.4240   -1.7370    2.6650 c         1 MOL      0.449315
    151 O21        -4.0280   -2.1310    3.7640 o         1 MOL     -0.573325
    152 C52        -2.6430   -1.7690    0.9280 c3        1 MOL      0.011781
    153 C53        -1.9020   -2.6060   -0.0300 c3        1 MOL     -0.293219
    154 C54        -0.6550   -1.8260   -0.5140 c         1 MOL      0.787021
    155 O22        -0.6140   -0.5920   -0.7000 o         1 MOL     -0.749010
    156 O23         0.4260   -2.4820   -0.7600 o         1 MOL     -0.749010
    157 H67        -4.8480   -1.4480   -0.1630 hn        1 MOL      0.174935
    158 H68        -3.6810   -3.4980    1.5660 h1        1 MOL      0.130287
    159 H69        -2.0580   -1.6310    1.8440 hc        1 MOL      0.103102
    160 H70        -2.7300   -0.7300    0.6130 hc        1 MOL      0.103102
    161 H71        -2.4640   -2.8020   -0.9360 hc        1 MOL      0.076673
    162 H72        -1.7070   -3.5720    0.4290 hc        1 MOL      0.076673
    163 N14        -5.3240   -0.7760    2.5310 n         1 MOL      0.058902
    164 C55        -5.9630   -0.0640    3.6820 c3        1 MOL     -0.106706
    165 H73        -6.6550   -0.7380    4.1860 h1        1 MOL      0.049794
    166 H74        -5.1940    0.2580    4.3840 h1        1 MOL      0.049794
    167 H75        -6.5070    0.8060    3.3140 h1        1 MOL      0.049794
    168 H76        -5.5540   -0.3360    1.6490 hn        1 MOL     -0.036484
    169 Ca1         1.5290   -0.3650   -1.9880 Ca        1 MOL      1.692988
    170 O24         0.6540    2.0310   -2.7120 oh        1 MOL     -0.904676
    171 H77         0.8100    2.2900   -3.6200 ho        1 MOL      0.428639
    172 H78        -0.2410    2.3190   -2.5390 ho        1 MOL      0.428639
    173 O25         3.6440    1.3630   -2.2560 oh        1 MOL     -0.904676
    174 H79         4.1310    1.1240   -1.4660 ho        1 MOL      0.428639
    175 H80         3.4920    2.3050   -2.1750 ho        1 MOL      0.428639
    176 O26        -0.1770   -1.0810   -3.7900 oh        1 MOL     -0.904676
    177 H81        -0.1980   -1.9570   -4.1570 ho        1 MOL      0.428639
    178 H82        -0.8820   -0.6170   -4.2420 ho        1 MOL      0.428639
@<TRIPOS>BOND
     1    1    2 1   
     2    1    4 1   
     3    1    5 1   
     4    1    6 1   
     5    2    3 2   
     6    2    7 1   
     7    7    8 1   
     8    7   15 1   
     9    8    9 1   
    10    8   11 1   
    11    8   16 1   
    12    9   10 2   
    13    9   19 1   
    14   11   12 1   
    15   11   17 1   
    16   11   18 1   
    17   12   13 1   
    18   12   14 1   
    19   19   20 1   
    20   19   24 1   
    21   20   21 1   
    22   20   23 1   
    23   20   25 1   
    24   21   22 2   
    25   21   29 1   
    26   23   26 1   
    27   23   27 1   
    28   23   28 1   
    29   29   30 1   
    30   29   37 1   
    31   30   31 1   
    32   30   33 1   
    33   30   38 1   
    34   31   32 2   
    35   31   41 1   
    36   33   34 1   
    37   33   39 1   
    38   33   40 1   
    39   34   35 1   
    40   34   36 1   
    41   41   42 1   
    42   41   45 1   
    43   42   43 1   
    44   42   46 1   
    45   42   47 1   
    46   43   44 2   
    47   43   48 1   
    48   48   49 1   
    49   48   56 1   
    50   49   50 1   
    51   49   52 1   
    52   49   57 1   
    53   50   51 2   
    54   50   62 1   
    55   52   53 1   
    56   52   58 1   
    57   52   59 1   
    58   53   54 1   
    59   53   55 2   
    60   54   60 1   
    61   54   61 1   
    62   62   63 1   
    63   62   66 1   
    64   63   64 1   
    65   63   67 1   
    66   63   68 1   
    67   64   65 2   
    68   64   69 1   
    69   69   70 1   
    70   69   76 1   
    71   70   71 1   
    72   70   73 1   
    73   70   77 1   
    74   71   72 2   
    75   71   83 1   
    76   73   74 1   
    77   73   75 1   
    78   73   78 1   
    79   74   80 1   
    80   74   81 1   
    81   74   82 1   
    82   75   79 1   
    83   83   84 1   
    84   83   91 1   
    85   84   85 1   
    86   84   87 1   
    87   84   92 1   
    88   85   86 2   
    89   85  102 1   
    90   87   88 1   
    91   87   89 1   
    92   87   93 1   
    93   88   90 1   
    94   88   94 1   
    95   88   95 1   
    96   89   96 1   
    97   89   97 1   
    98   89   98 1   
    99   90   99 1   
   100   90  100 1   
   101   90  101 1   
   102  102  103 1   
   103  102  110 1   
   104  103  104 1   
   105  103  106 1   
   106  103  111 1   
   107  104  105 2   
   108  104  114 1   
   109  106  107 1   
   110  106  112 1   
   111  106  113 1   
   112  107  108 1   
   113  107  109 1   
   114  114  115 1   
   115  114  125 1   
   116  115  116 1   
   117  115  118 1   
   118  115  126 1   
   119  116  117 2   
   120  116  134 1   
   121  118  119 1   
   122  118  127 1   
   123  118  128 1   
   124  119  120 ar  
   125  119  121 ar  
   126  120  122 ar  
   127  120  129 1   
   128  121  123 ar  
   129  121  130 1   
   130  122  124 ar  
   131  122  131 1   
   132  123  124 ar  
   133  123  132 1   
   134  124  133 1   
   135  134  135 1   
   136  134  140 1   
   137  135  136 1   
   138  135  138 1   
   139  135  141 1   
   140  136  137 2   
   141  136  148 1   
   142  138  139 1   
   143  138  142 1   
   144  138  143 1   
   145  139  140 1   
   146  139  144 1   
   147  139  145 1   
   148  140  146 1   
   149  140  147 1   
   150  148  149 1   
   151  148  157 1   
   152  149  150 1   
   153  149  152 1   
   154  149  158 1   
   155  150  151 2   
   156  150  163 1   
   157  152  153 1   
   158  152  159 1   
   159  152  160 1   
   160  153  154 1   
   161  153  161 1   
   162  153  162 1   
   163  154  155 1   
   164  154  156 1   
   165  163  164 1   
   166  163  168 1   
   167  164  165 1   
   168  164  166 1   
   169  164  167 1   
   170  170  171 1   
   171  170  172 1   
   172  173  174 1   
   173  173  175 1   
   174  176  177 1   
   175  176  178 1   
@<TRIPOS>SUBSTRUCTURE
     1 MOL         1 TEMP              0 ****  ****    0 ROOT
