@<TRIPOS>MOLECULE
MOL
  179   176     1     0     0
SMALL
resp


@<TRIPOS>ATOM
      1 C1          0.7540    3.7760    5.1990 c3        1 MOL     -0.178191
      2 C2          0.3310    3.5130    3.7280 c         1 MOL      0.627014
      3 O1          1.0360    3.7360    2.7780 o         1 MOL     -0.561379
      4 H1          0.5870    4.8260    5.4410 hc        1 MOL      0.046262
      5 H2          0.1610    3.1510    5.8650 hc        1 MOL      0.046262
      6 H3          1.8100    3.5400    5.3210 hc        1 MOL      0.046262
      7 N1         -0.8370    2.9130    3.5410 n         1 MOL     -0.590464
      8 C3         -1.3930    2.5510    2.2520 c3        1 MOL      0.119041
      9 C4         -2.0260    3.7900    1.6020 c         1 MOL      0.420038
     10 O2         -3.2690    4.0030    1.6680 o         1 MOL     -0.468492
     11 C5         -2.3170    1.3500    2.5140 c3        1 MOL      0.033655
     12 C6         -2.8790    0.8000    1.1350 c         1 MOL      0.539345
     13 O3         -2.4920    1.1290   -0.0210 o         1 MOL     -0.634994
     14 O4         -3.8340   -0.0280    1.2930 o         1 MOL     -0.634994
     15 H4         -1.4120    2.7640    4.3550 hn        1 MOL      0.330441
     16 H5         -0.5820    2.1880    1.6250 h1        1 MOL      0.036789
     17 H6         -3.1350    1.7480    3.1140 hc        1 MOL     -0.006763
     18 H7         -1.7930    0.5840    3.0820 hc        1 MOL     -0.006763
     19 N2         -1.2570    4.6580    0.8550 n         1 MOL     -0.201163
     20 C7         -1.5050    6.0090    0.2860 c3        1 MOL     -0.116365
     21 C8         -2.3630    6.0660   -0.9850 c         1 MOL      0.449206
     22 O5         -2.9740    7.1220   -1.2860 o         1 MOL     -0.552332
     23 C9         -0.2330    6.6510   -0.0960 c3        1 MOL     -0.210511
     24 C10         0.7530    6.9780    1.0160 c3        1 MOL     -0.044856
     25 C11         0.0860    7.7430    2.2200 c3        1 MOL     -0.231490
     26 C12        -0.5980    9.0700    1.9440 c3        1 MOL     -0.035778
     27 N3          0.4310   10.1080    1.7420 n4        1 MOL     -0.274222
     28 H8         -0.3350    4.2900    0.6790 hn        1 MOL      0.311572
     29 H9         -1.9690    6.6470    1.0450 h1        1 MOL      0.119323
     30 H10        -0.4910    7.5480   -0.6460 hc        1 MOL      0.095241
     31 H11         0.2160    5.9620   -0.8180 hc        1 MOL      0.095241
     32 H12         1.5980    7.6020    0.7230 hc        1 MOL      0.056919
     33 H13         1.1810    6.0450    1.3880 hc        1 MOL      0.056919
     34 H14         0.8840    7.9060    2.9430 hc        1 MOL      0.103125
     35 H15        -0.5850    7.0380    2.7120 hc        1 MOL      0.103125
     36 H16        -1.3190    9.2260    2.7500 hx        1 MOL      0.128921
     37 H17        -1.1100    9.0530    0.9860 hx        1 MOL      0.128921
     38 H18         0.1670   11.0840    1.8100 hn        1 MOL      0.305185
     39 H19         1.3120   10.0050    2.2350 hn        1 MOL      0.305185
     40 H20         0.8250   10.1160    0.8130 hn        1 MOL      0.305185
     41 N4         -2.6130    4.8670   -1.6280 n         1 MOL     -0.286302
     42 C13        -3.6080    4.6550   -2.5820 c3        1 MOL      0.199864
     43 C14        -4.8430    4.0330   -1.9250 c         1 MOL      0.265587
     44 O6         -5.9350    4.1760   -2.4780 o         1 MOL     -0.504212
     45 C15        -3.1290    3.6470   -3.6500 c3        1 MOL     -0.437522
     46 C16        -2.4200    2.3280   -3.0830 c         1 MOL      0.873020
     47 O7         -2.8410    1.1790   -3.3360 o         1 MOL     -0.749302
     48 O8         -1.3360    2.4480   -2.5080 o         1 MOL     -0.749302
     49 H21        -2.0600    4.0850   -1.2980 hn        1 MOL      0.221419
     50 H22        -3.8540    5.5600   -3.1370 h1        1 MOL      0.070524
     51 H23        -2.4550    4.1740   -4.3110 hc        1 MOL      0.109597
     52 H24        -4.0340    3.3200   -4.1720 hc        1 MOL      0.109597
     53 N5         -4.6550    3.3830   -0.7870 n         1 MOL      0.371666
     54 C17        -5.7180    2.7840   -0.0350 c3        1 MOL     -0.381240
     55 C18        -6.4290    1.5960   -0.7680 c         1 MOL      0.641615
     56 O9         -7.4290    1.7840   -1.5200 o         1 MOL     -0.552853
     57 H25        -3.7370    3.2670   -0.3830 hn        1 MOL     -0.259602
     58 H26        -6.4130    3.5750    0.2450 h1        1 MOL      0.122094
     59 H27        -5.3010    2.4050    0.8920 h1        1 MOL      0.122094
     60 N6         -5.9660    0.3720   -0.5860 n         1 MOL     -0.486599
     61 C19        -6.5430   -0.8830   -1.1340 c3        1 MOL      0.017629
     62 C20        -6.3880   -2.1960   -0.2230 c         1 MOL      0.248597
     63 O10        -6.6170   -3.3380   -0.6420 o         1 MOL     -0.412524
     64 C21        -5.8530   -1.0990   -2.5270 c3        1 MOL     -0.153366
     65 C22        -4.5030   -1.7310   -2.4230 c         1 MOL      0.497606
     66 N7         -4.3680   -2.8970   -3.0290 n         1 MOL     -0.619632
     67 O11        -3.6100   -1.2230   -1.7990 o         1 MOL     -0.551212
     68 H28        -5.1190    0.3250   -0.0360 hn        1 MOL      0.291639
     69 H29        -7.6110   -0.6810   -1.2620 h1        1 MOL      0.130320
     70 H30        -5.7930   -0.1440   -3.0550 hc        1 MOL      0.086685
     71 H31        -6.4980   -1.7660   -3.1070 hc        1 MOL      0.086685
     72 H32        -5.1290   -3.2480   -3.5880 hn        1 MOL      0.322646
     73 H33        -3.4280   -3.2680   -3.1150 hn        1 MOL      0.322646
     74 N8         -5.8290   -2.0700    1.0060 n         1 MOL     -0.032017
     75 C23        -5.7280   -2.9750    2.1680 c3        1 MOL     -0.440578
     76 C24        -4.3790   -3.5440    2.2910 c         1 MOL      0.751289
     77 O12        -4.2760   -4.4880    3.0360 o         1 MOL     -0.568269
     78 H34        -5.4730   -1.1600    1.2740 hn        1 MOL      0.145515
     79 H35        -6.4860   -3.7590    2.0760 h1        1 MOL      0.180810
     80 H36        -5.8990   -2.4990    3.1280 h1        1 MOL      0.180810
     81 N9         -3.3520   -3.1360    1.5030 n         1 MOL     -0.826328
     82 C25        -2.1530   -3.9140    1.3540 c3        1 MOL      0.302828
     83 C26        -0.9730   -2.9370    0.9700 c         1 MOL      0.448734
     84 O13        -1.2150   -1.8970    0.3140 o         1 MOL     -0.618352
     85 C27        -2.3690   -4.9140    0.2320 c3        1 MOL     -0.010329
     86 C28        -3.2700   -6.0110    0.5990 ca        1 MOL     -0.008484
     87 C29        -4.6130   -5.8180    0.2010 ca        1 MOL     -0.157596
     88 C30        -2.8360   -7.1870    1.2120 ca        1 MOL     -0.157596
     89 C31        -5.5090   -6.8670    0.5230 ca        1 MOL     -0.185438
     90 C32        -3.7300   -8.2260    1.4640 ca        1 MOL     -0.185438
     91 C33        -5.0730   -8.0900    1.1310 ca        1 MOL      0.292713
     92 O14        -5.9290   -9.1080    0.9790 oh        1 MOL     -0.482818
     93 H37        -3.4780   -2.2620    1.0020 hn        1 MOL      0.558341
     94 H38        -1.9170   -4.4750    2.2560 h1        1 MOL      0.036934
     95 H39        -1.3430   -5.2590    0.0420 hc        1 MOL     -0.008343
     96 H40        -2.7070   -4.2930   -0.5960 hc        1 MOL     -0.008343
     97 H41        -4.9430   -4.8860   -0.2430 ha        1 MOL      0.118440
     98 H42        -1.8250   -7.2700    1.5900 ha        1 MOL      0.118440
     99 H43        -6.5380   -6.7980    0.2140 ha        1 MOL      0.109400
    100 H44        -3.4060   -9.1820    1.8490 ha        1 MOL      0.109400
    101 H45        -5.6250   -9.9920    1.1760 ho        1 MOL      0.366559
    102 N10         0.2740   -3.1680    1.3790 n         1 MOL     -0.341129
    103 C34         1.4490   -2.2910    1.0620 c3        1 MOL     -0.102357
    104 C35         2.6090   -3.2160    0.7130 c         1 MOL      0.495343
    105 O15         2.7790   -4.2860    1.2880 o         1 MOL     -0.556202
    106 C36         1.8320   -1.3080    2.2380 c3        1 MOL     -0.066354
    107 C37         2.2420   -2.1110    3.4790 c3        1 MOL     -0.316828
    108 C38         0.6620   -0.2600    2.4740 c3        1 MOL     -0.204279
    109 C39         2.9450   -1.2660    4.5270 c3        1 MOL     -0.028891
    110 H46         0.4370   -3.9860    1.9360 hn        1 MOL      0.240092
    111 H47         1.1490   -1.7670    0.1580 h1        1 MOL      0.144368
    112 H48         2.6950   -0.7710    1.8640 hc        1 MOL      0.097073
    113 H49         2.9970   -2.8350    3.1500 hc        1 MOL      0.132287
    114 H50         1.3230   -2.4910    3.9150 hc        1 MOL      0.132287
    115 H51         1.0410    0.5910    3.0300 hc        1 MOL      0.098948
    116 H52        -0.0260   -0.1160    1.6410 hc        1 MOL      0.098948
    117 H53         0.0740   -0.8260    3.1980 hc        1 MOL      0.098948
    118 H54         2.1760   -0.6320    4.9700 hc        1 MOL      0.020214
    119 H55         3.1870   -1.9860    5.3040 hc        1 MOL      0.020214
    120 H56         3.8660   -0.7930    4.1910 hc        1 MOL      0.020214
    121 N11         3.4190   -2.8210   -0.2460 n         1 MOL     -0.123105
    122 C40         4.5820   -3.5090   -0.7560 c3        1 MOL      0.004038
    123 C41         5.8730   -2.8650   -0.2140 c         1 MOL      0.448253
    124 O16         5.8470   -1.9100    0.5190 o         1 MOL     -0.353648
    125 C42         4.5320   -3.5070   -2.2800 c3        1 MOL     -0.391416
    126 O17         4.8170   -2.2020   -2.7250 oh        1 MOL     -0.424123
    127 H57         3.3340   -1.8880   -0.6310 hn        1 MOL      0.138051
    128 H58         4.5590   -4.5490   -0.4480 h1        1 MOL      0.079931
    129 H59         3.4790   -3.6240   -2.5560 h1        1 MOL      0.185841
    130 H60         5.1170   -4.2800   -2.7710 h1        1 MOL      0.185841
    131 H61         4.4550   -2.1070   -3.6090 ho        1 MOL      0.384235
    132 N12         7.0180   -3.4970   -0.4810 n         1 MOL     -0.382161
    133 C43         8.3230   -3.0590   -0.0770 c3        1 MOL     -0.030797
    134 C44         8.9040   -1.7140   -0.5870 c         1 MOL      0.465237
    135 O18         9.8660   -1.2020   -0.0380 o         1 MOL     -0.494162
    136 C45         9.3460   -4.2160   -0.3280 c3        1 MOL     -0.213633
    137 H62         6.9970   -4.3360   -1.0380 hn        1 MOL      0.286862
    138 H63         8.2660   -2.9470    1.0120 h1        1 MOL      0.106409
    139 H64         9.6040   -4.3680   -1.3800 hc        1 MOL      0.080306
    140 H65        10.3000   -4.0130    0.1480 hc        1 MOL      0.080306
    141 H66         9.0590   -5.2170   -0.0320 hc        1 MOL      0.080306
    142 N13         8.3670   -1.2880   -1.7250 n         1 MOL     -0.317795
    143 C46         8.5350    0.0390   -2.2040 c3        1 MOL      0.070375
    144 C47         7.5740    1.0430   -1.5420 c         1 MOL      0.367481
    145 O19         8.0230    2.1420   -1.3520 o         1 MOL     -0.495216
    146 C48         8.4530    0.0260   -3.7430 c3        1 MOL     -0.068464
    147 H67         7.7110   -1.9050   -2.1950 hn        1 MOL      0.204140
    148 H68         9.5760    0.2820   -1.9450 h1        1 MOL      0.084226
    149 H69         7.3810   -0.0220   -3.9490 hc        1 MOL      0.023813
    150 H70         8.8630    0.9480   -4.1600 hc        1 MOL      0.023813
    151 H71         8.9860   -0.7520   -4.2840 hc        1 MOL      0.023813
    152 N14         6.3320    0.6230   -1.2490 n         1 MOL     -0.096113
    153 C49         5.4260    1.4610   -0.4070 c3        1 MOL     -0.165857
    154 C50         6.0480    1.5690    1.0300 c         1 MOL      0.473947
    155 O20         5.8390    2.6120    1.6240 o         1 MOL     -0.546292
    156 C51         4.0380    0.6790   -0.2750 c3        1 MOL      0.071605
    157 C52         3.2650    0.9220   -1.6030 c3        1 MOL     -0.139575
    158 C53         1.8470    0.4160   -1.5280 c         1 MOL      0.855347
    159 O21         1.5910   -0.6740   -2.0670 o         1 MOL     -0.768328
    160 O22         0.9310    1.1080   -0.9720 o         1 MOL     -0.768328
    161 H72         6.1260   -0.3450   -1.4170 hn        1 MOL      0.089944
    162 H73         5.3610    2.4420   -0.8650 h1        1 MOL      0.147633
    163 H74         3.5440    1.0420    0.6250 hc        1 MOL      0.026031
    164 H75         4.1060   -0.4080   -0.2080 hc        1 MOL      0.026031
    165 H76         3.7070    0.4660   -2.4970 hc        1 MOL     -0.002986
    166 H77         3.2210    1.9770   -1.8240 hc        1 MOL     -0.002986
    167 N15         6.7370    0.5720    1.5990 n         1 MOL     -0.147152
    168 C54         7.2460    0.7230    3.0010 c3        1 MOL     -0.301040
    169 H78         7.0710    1.7440    3.3420 h1        1 MOL      0.122154
    170 H79         6.7210    0.0270    3.6550 h1        1 MOL      0.122154
    171 H80         8.3140    0.5110    3.0250 h1        1 MOL      0.122154
    172 H81         6.8130   -0.2990    1.1010 hn        1 MOL      0.147579
    173 Ca1        -1.2410   -0.2030   -1.7760 Ca        1 MOL      1.731295
    174 O23         0.0950    0.2140   -4.1850 oh        1 MOL     -0.807903
    175 H82         0.0450   -0.0900   -5.0950 ho        1 MOL      0.387093
    176 H83         0.9780   -0.0280   -3.9090 ho        1 MOL      0.387093
    177 O24        -0.6920   -2.6280   -2.5840 oh        1 MOL     -0.807903
    178 H84        -1.2860   -3.1030   -3.1560 ho        1 MOL      0.387093
    179 H85        -0.0090   -3.2590   -2.3470 ho        1 MOL      0.387093
@<TRIPOS>BOND
     1    1    2 1   
     2    1    4 1   
     3    1    5 1   
     4    1    6 1   
     5    2    3 2   
     6    2    7 1   
     7    7    8 1   
     8    7   15 1   
     9    8    9 1   
    10    8   11 1   
    11    8   16 1   
    12    9   10 2   
    13    9   19 1   
    14   11   12 1   
    15   11   17 1   
    16   11   18 1   
    17   12   13 1   
    18   12   14 1   
    19   19   20 1   
    20   19   28 1   
    21   20   21 1   
    22   20   23 1   
    23   20   29 1   
    24   21   22 2   
    25   21   41 1   
    26   23   24 1   
    27   23   30 1   
    28   23   31 1   
    29   24   25 1   
    30   24   32 1   
    31   24   33 1   
    32   25   26 1   
    33   25   34 1   
    34   25   35 1   
    35   26   27 1   
    36   26   36 1   
    37   26   37 1   
    38   27   38 1   
    39   27   39 1   
    40   27   40 1   
    41   41   42 1   
    42   41   49 1   
    43   42   43 1   
    44   42   45 1   
    45   42   50 1   
    46   43   44 2   
    47   43   53 1   
    48   45   46 1   
    49   45   51 1   
    50   45   52 1   
    51   46   47 1   
    52   46   48 1   
    53   53   54 1   
    54   53   57 1   
    55   54   55 1   
    56   54   58 1   
    57   54   59 1   
    58   55   56 2   
    59   55   60 1   
    60   60   61 1   
    61   60   68 1   
    62   61   62 1   
    63   61   64 1   
    64   61   69 1   
    65   62   63 2   
    66   62   74 1   
    67   64   65 1   
    68   64   70 1   
    69   64   71 1   
    70   65   66 1   
    71   65   67 2   
    72   66   72 1   
    73   66   73 1   
    74   74   75 1   
    75   74   78 1   
    76   75   76 1   
    77   75   79 1   
    78   75   80 1   
    79   76   77 2   
    80   76   81 1   
    81   81   82 1   
    82   81   93 1   
    83   82   83 1   
    84   82   85 1   
    85   82   94 1   
    86   83   84 2   
    87   83  102 1   
    88   85   86 1   
    89   85   95 1   
    90   85   96 1   
    91   86   87 ar  
    92   86   88 ar  
    93   87   89 ar  
    94   87   97 1   
    95   88   90 ar  
    96   88   98 1   
    97   89   91 ar  
    98   89   99 1   
    99   90   91 ar  
   100   90  100 1   
   101   91   92 1   
   102   92  101 1   
   103  102  103 1   
   104  102  110 1   
   105  103  104 1   
   106  103  106 1   
   107  103  111 1   
   108  104  105 2   
   109  104  121 1   
   110  106  107 1   
   111  106  108 1   
   112  106  112 1   
   113  107  109 1   
   114  107  113 1   
   115  107  114 1   
   116  108  115 1   
   117  108  116 1   
   118  108  117 1   
   119  109  118 1   
   120  109  119 1   
   121  109  120 1   
   122  121  122 1   
   123  121  127 1   
   124  122  123 1   
   125  122  125 1   
   126  122  128 1   
   127  123  124 2   
   128  123  132 1   
   129  125  126 1   
   130  125  129 1   
   131  125  130 1   
   132  126  131 1   
   133  132  133 1   
   134  132  137 1   
   135  133  134 1   
   136  133  136 1   
   137  133  138 1   
   138  134  135 2   
   139  134  142 1   
   140  136  139 1   
   141  136  140 1   
   142  136  141 1   
   143  142  143 1   
   144  142  147 1   
   145  143  144 1   
   146  143  146 1   
   147  143  148 1   
   148  144  145 2   
   149  144  152 1   
   150  146  149 1   
   151  146  150 1   
   152  146  151 1   
   153  152  153 1   
   154  152  161 1   
   155  153  154 1   
   156  153  156 1   
   157  153  162 1   
   158  154  155 2   
   159  154  167 1   
   160  156  157 1   
   161  156  163 1   
   162  156  164 1   
   163  157  158 1   
   164  157  165 1   
   165  157  166 1   
   166  158  159 1   
   167  158  160 1   
   168  167  168 1   
   169  167  172 1   
   170  168  169 1   
   171  168  170 1   
   172  168  171 1   
   173  174  175 1   
   174  174  176 1   
   175  177  178 1   
   176  177  179 1   
@<TRIPOS>SUBSTRUCTURE
     1 MOL         1 TEMP              0 ****  ****    0 ROOT
