@<TRIPOS>MOLECULE
MOL
  186   183     1     0     0
SMALL
resp


@<TRIPOS>ATOM
      1 C1          0.4440    2.8120   -5.9510 c3        1 MOL     -0.318595
      2 C2          0.8970    2.7410   -4.4920 c         1 MOL      0.887473
      3 O1          0.1470    3.0970   -3.6490 o         1 MOL     -0.640731
      4 H1          0.3530    1.8030   -6.3520 hc        1 MOL      0.066635
      5 H2         -0.5220    3.3130   -6.0080 hc        1 MOL      0.066635
      6 H3          1.1790    3.3700   -6.5330 hc        1 MOL      0.066635
      7 N1          2.1110    2.3240   -4.2000 n         1 MOL     -0.834049
      8 C3          2.6700    2.2150   -2.8100 c3        1 MOL      0.347256
      9 C4          2.9300    3.6310   -2.1930 c         1 MOL      0.611569
     10 O2          3.7730    4.3630   -2.6570 o         1 MOL     -0.587723
     11 C5          3.8460    1.3180   -2.7450 c3        1 MOL     -0.416959
     12 C6          4.5240    1.3160   -1.3790 c         1 MOL      0.694140
     13 O3          5.7780    1.1890   -1.3280 o         1 MOL     -0.645068
     14 O4          3.8730    1.2740   -0.3170 o         1 MOL     -0.645068
     15 H4          2.7580    2.0980   -4.9350 hn        1 MOL      0.363535
     16 H5          1.9030    1.8280   -2.1280 h1        1 MOL     -0.024570
     17 H6          4.5540    1.5300   -3.5440 hc        1 MOL      0.104233
     18 H7          3.5820    0.2720   -2.9590 hc        1 MOL      0.104233
     19 N2          2.2660    4.0340   -1.0880 n         1 MOL     -0.382078
     20 C7          2.2890    5.3890   -0.5870 c3        1 MOL     -0.271262
     21 C8          3.3520    5.3070    0.4970 c         1 MOL      0.770883
     22 O5          3.9390    6.3450    0.7570 o         1 MOL     -0.629818
     23 C9          0.9110    5.7960   -0.0610 c3        1 MOL      0.273710
     24 C10        -0.1260    5.7200   -1.1990 c3        1 MOL      0.081920
     25 C11         0.8860    7.1120    0.6500 c3        1 MOL     -0.093954
     26 C12        -1.5540    6.1510   -0.8620 c3        1 MOL     -0.260088
     27 H8          1.7040    3.3240   -0.6260 hn        1 MOL      0.235065
     28 H9          2.6780    6.1190   -1.2920 h1        1 MOL      0.118861
     29 H10         0.6140    5.0530    0.6730 hc        1 MOL     -0.010349
     30 H11        -0.2940    4.6850   -1.4940 hc        1 MOL     -0.005786
     31 H12         0.2640    6.3040   -2.0320 hc        1 MOL     -0.005786
     32 H13         1.6710    7.2330    1.4000 hc        1 MOL     -0.001958
     33 H14         0.9350    7.9430   -0.0600 hc        1 MOL     -0.001958
     34 H15        -0.0650    7.2600    1.1650 hc        1 MOL     -0.001958
     35 H16        -1.9720    5.6260   -0.0010 hc        1 MOL      0.053323
     36 H17        -1.6370    7.2360   -0.9360 hc        1 MOL      0.053323
     37 H18        -2.1770    5.9090   -1.7240 hc        1 MOL      0.053323
     38 N3          3.6480    4.1570    1.1650 n         1 MOL     -0.588752
     39 C13         4.3330    4.0120    2.4940 c3        1 MOL      0.097147
     40 C14         5.6530    3.1810    2.4510 c         1 MOL      0.359764
     41 O6          6.4570    3.3190    3.3500 o         1 MOL     -0.551732
     42 C15         3.4470    3.5510    3.5740 c3        1 MOL     -0.122895
     43 C16         2.7430    2.1120    3.4440 c         1 MOL      0.712475
     44 O7          1.7370    1.8980    4.1170 o         1 MOL     -0.703346
     45 O8          3.1610    1.2170    2.6760 o         1 MOL     -0.703346
     46 H19         3.3360    3.2760    0.7870 hn        1 MOL      0.324121
     47 H20         4.5790    5.0390    2.7560 h1        1 MOL      0.082476
     48 H21         2.6260    4.2590    3.6080 hc        1 MOL      0.035718
     49 H22         3.9540    3.7510    4.5160 hc        1 MOL      0.035718
     50 N4          6.0060    2.4860    1.3770 n         1 MOL     -0.032293
     51 C17         7.3690    1.9980    1.1410 c3        1 MOL     -0.409121
     52 C18         7.7260    0.6620    1.6870 c         1 MOL      0.648102
     53 O9          8.9090    0.3730    1.7520 o         1 MOL     -0.617127
     54 H23         5.3310    2.2400    0.6630 hn        1 MOL      0.110209
     55 H24         8.0530    2.7220    1.5880 h1        1 MOL      0.156768
     56 H25         7.5380    1.9310    0.0630 h1        1 MOL      0.156768
     57 N5          6.7820   -0.2530    1.9960 n         1 MOL     -0.364706
     58 C19         7.1690   -1.7360    2.0410 c3        1 MOL      0.057261
     59 C20         7.3150   -2.3840    0.6670 c         1 MOL      0.415329
     60 O10         7.8200   -3.5300    0.6180 o         1 MOL     -0.555936
     61 C21         6.0740   -2.4300    2.8200 c3        1 MOL     -0.109634
     62 C22         4.6140   -2.3360    2.3140 c         1 MOL      0.731559
     63 O11         4.3480   -1.8000    1.2220 o         1 MOL     -0.715569
     64 O12         3.6540   -2.7840    2.9610 o         1 MOL     -0.715569
     65 H26         5.8220   -0.0080    1.7950 hn        1 MOL      0.152396
     66 H27         8.1180   -1.8950    2.5410 h1        1 MOL      0.093162
     67 H28         6.2060   -2.0480    3.8310 hc        1 MOL      0.036603
     68 H29         6.3770   -3.4760    2.8820 hc        1 MOL      0.036603
     69 N6          6.9560   -1.7380   -0.4790 n         1 MOL     -0.191772
     70 C23         7.1050   -2.3200   -1.7970 c3        1 MOL      0.014980
     71 C24         5.9760   -3.2320   -2.2830 c         1 MOL      0.518676
     72 O13         6.2600   -4.0530   -3.1250 o         1 MOL     -0.607896
     73 H30         6.5600   -0.8190   -0.3890 hn        1 MOL      0.202169
     74 H31         8.0240   -2.9210   -1.7400 h1        1 MOL      0.033048
     75 H32         7.3440   -1.5300   -2.5080 h1        1 MOL      0.033048
     76 N7          4.8600   -3.1300   -1.6640 n         1 MOL     -0.246382
     77 C25         3.6620   -3.8940   -1.8110 c3        1 MOL     -0.000254
     78 C26         2.4550   -2.8980   -1.7340 c         1 MOL      0.677563
     79 O14         2.5890   -1.7770   -1.3450 o         1 MOL     -0.695242
     80 C27         3.5340   -4.9480   -0.6780 c3        1 MOL      0.004057
     81 C28         4.6090   -5.9610   -0.7840 c3        1 MOL     -0.075892
     82 C29         4.8250   -6.7120    0.5210 c         1 MOL      0.647377
     83 N8          5.0730   -8.0200    0.3630 n         1 MOL     -0.813919
     84 O15         4.6430   -6.2540    1.6350 o         1 MOL     -0.522257
     85 H33         4.7900   -2.4640   -0.9090 hn        1 MOL      0.227272
     86 H34         3.5430   -4.4490   -2.7380 h1        1 MOL      0.029770
     87 H35         2.5470   -5.4270   -0.6830 hc        1 MOL      0.014656
     88 H36         3.5920   -4.3650    0.2350 hc        1 MOL      0.014656
     89 H37         5.5560   -5.4550   -0.9590 hc        1 MOL      0.031718
     90 H38         4.3360   -6.6600   -1.5820 hc        1 MOL      0.031718
     91 H39         5.2890   -8.4970   -0.5000 hn        1 MOL      0.343006
     92 H40         4.8740   -8.5630    1.1950 hn        1 MOL      0.343006
     93 N9          1.2220   -3.2610   -2.2100 n         1 MOL     -0.526869
     94 C30         0.0240   -2.4020   -2.3050 c3        1 MOL      0.074195
     95 C31        -1.1040   -2.9270   -1.4320 c         1 MOL      0.376601
     96 O16        -1.5180   -4.0810   -1.6210 o         1 MOL     -0.586798
     97 C32        -0.4770   -2.1850   -3.7570 c3        1 MOL      0.146674
     98 C33        -1.8350   -1.3750   -3.8400 c3        1 MOL     -0.285840
     99 C34         0.5560   -1.2820   -4.4410 c3        1 MOL     -0.285840
    100 H41         1.0370   -4.2130   -2.4630 hn        1 MOL      0.282138
    101 H42         0.3070   -1.4160   -1.9210 h1        1 MOL      0.110429
    102 H43        -0.5090   -3.1200   -4.3130 hc        1 MOL      0.008677
    103 H44        -1.8570   -0.5370   -3.1430 hc        1 MOL      0.062976
    104 H45        -2.1080   -1.0290   -4.8320 hc        1 MOL      0.062976
    105 H46        -2.6520   -1.9950   -3.4690 hc        1 MOL      0.062976
    106 H47         0.2110   -1.0130   -5.4500 hc        1 MOL      0.062976
    107 H48         0.7580   -0.3740   -3.8770 hc        1 MOL      0.062976
    108 H49         1.5380   -1.7510   -4.5140 hc        1 MOL      0.062976
    109 N10        -1.6860   -2.1430   -0.5330 n         1 MOL      0.036429
    110 C35        -2.8680   -2.4990    0.2380 c3        1 MOL     -0.010568
    111 C36        -4.1620   -2.1070   -0.3940 c         1 MOL      0.458229
    112 O17        -4.1510   -1.2040   -1.2660 o         1 MOL     -0.378958
    113 C37        -2.7310   -1.9120    1.6520 c3        1 MOL     -0.484692
    114 C38        -3.6880   -2.4600    2.7160 c         1 MOL      0.898700
    115 N11        -3.1400   -3.3430    3.5390 n         1 MOL     -0.879874
    116 O18        -4.8490   -2.1030    2.8390 o         1 MOL     -0.608155
    117 H50        -1.1920   -1.2610   -0.4760 hn        1 MOL      0.198112
    118 H51        -2.9200   -3.5850    0.2280 h1        1 MOL      0.048416
    119 H52        -2.9190   -0.8510    1.4860 hc        1 MOL      0.119660
    120 H53        -1.6900   -1.9750    1.9980 hc        1 MOL      0.119660
    121 H54        -2.1570   -3.5310    3.4350 hn        1 MOL      0.394619
    122 H55        -3.6940   -3.7560    4.2760 hn        1 MOL      0.394619
    123 N12        -5.3410   -2.5650    0.0920 n         1 MOL     -0.534914
    124 C39        -6.6750   -2.0990   -0.2050 c3        1 MOL      0.313065
    125 C40        -6.7110   -0.5770   -0.0630 c         1 MOL      0.395883
    126 O19        -7.0950    0.1680   -0.9840 o         1 MOL     -0.540831
    127 C41        -7.7050   -2.7870    0.6720 c3        1 MOL     -0.089397
    128 C42        -9.0560   -2.4210    0.2660 ca        1 MOL      0.127433
    129 C43        -9.6370   -2.9890   -0.8670 ca        1 MOL     -0.297632
    130 C44        -9.6900   -1.3490    0.8790 ca        1 MOL     -0.297632
    131 C45       -10.7470   -2.4320   -1.4590 ca        1 MOL     -0.028504
    132 C46       -10.8780   -0.9020    0.3400 ca        1 MOL     -0.028504
    133 C47       -11.5090   -1.4770   -0.7780 ca        1 MOL      0.072277
    134 O20       -12.5520   -0.8390   -1.4570 oh        1 MOL     -0.475008
    135 H56        -5.3320   -3.3270    0.7500 hn        1 MOL      0.274303
    136 H57        -6.9360   -2.3310   -1.2370 h1        1 MOL     -0.013537
    137 H58        -7.4130   -2.5360    1.6970 hc        1 MOL      0.037463
    138 H59        -7.5940   -3.8570    0.5240 hc        1 MOL      0.037463
    139 H60        -9.1410   -3.8360   -1.3220 ha        1 MOL      0.141447
    140 H61        -9.0840   -0.7800    1.5660 ha        1 MOL      0.141447
    141 H62       -11.0260   -2.7660   -2.4430 ha        1 MOL      0.098168
    142 H63       -11.3300    0.0090    0.6830 ha        1 MOL      0.098168
    143 H64       -12.8540   -0.1220   -0.9080 ho        1 MOL      0.370945
    144 N13        -6.2470   -0.0990    1.1210 n         1 MOL      0.005620
    145 C48        -6.1890    1.3450    1.5250 c3        1 MOL     -0.205721
    146 C49        -5.2870    2.2830    0.6540 c         1 MOL      0.321181
    147 O21        -5.4380    3.4950    0.7580 o         1 MOL     -0.508971
    148 C50        -6.0690    1.4720    3.0780 c3        1 MOL      0.008532
    149 C51        -7.1770    0.7470    3.8140 c3        1 MOL     -0.278502
    150 C52        -6.8640    0.8080    5.2680 c         1 MOL      0.726822
    151 O22        -6.4980   -0.3070    5.7470 o         1 MOL     -0.740369
    152 O23        -6.9720    1.7970    5.9940 o         1 MOL     -0.740369
    153 H65        -5.8780   -0.7910    1.7610 hn        1 MOL      0.177340
    154 H66        -7.1820    1.7700    1.4250 h1        1 MOL      0.112753
    155 H67        -5.9930    2.5300    3.3420 hc        1 MOL      0.057263
    156 H68        -5.1540    0.9810    3.4060 hc        1 MOL      0.057263
    157 H69        -7.5000   -0.2760    3.6080 hc        1 MOL      0.039759
    158 H70        -8.0940    1.2210    3.4580 hc        1 MOL      0.039759
    159 N14        -4.5220    1.6770   -0.2390 n         1 MOL      0.121299
    160 C53        -3.7090    2.3910   -1.2140 c3        1 MOL     -0.012520
    161 C54        -4.3140    2.1370   -2.6530 c         1 MOL      0.349440
    162 O24        -4.4320    3.0080   -3.4880 o         1 MOL     -0.550461
    163 C55        -2.3040    1.7920   -1.2380 c3        1 MOL      0.280817
    164 C56        -1.4770    2.2080    0.0230 c3        1 MOL      0.105223
    165 C57        -0.1400    1.4130    0.0830 c         1 MOL      0.694321
    166 O25         0.8970    1.9950    0.4110 o         1 MOL     -0.747692
    167 O26        -0.0940    0.1970   -0.1170 o         1 MOL     -0.747692
    168 H71        -4.5140    0.6650   -0.2410 hn        1 MOL     -0.137237
    169 H72        -3.6410    3.4420   -0.9370 h1        1 MOL      0.057614
    170 H73        -1.7710    2.0810   -2.1390 hc        1 MOL     -0.045648
    171 H74        -2.2630    0.7090   -1.3580 hc        1 MOL     -0.045648
    172 H75        -2.1130    1.9350    0.8640 hc        1 MOL     -0.065653
    173 H76        -1.2840    3.2760    0.0390 hc        1 MOL     -0.065653
    174 N15        -4.6820    0.9120   -3.0840 n         1 MOL     -0.045465
    175 C58        -5.5030    0.6440   -4.2490 c3        1 MOL     -0.209832
    176 H77        -4.9950   -0.0750   -4.8920 h1        1 MOL      0.075859
    177 H78        -6.4620    0.2340   -3.9330 h1        1 MOL      0.075859
    178 H79        -5.6670    1.5700   -4.7990 h1        1 MOL      0.075859
    179 H80        -4.5720    0.1640   -2.4150 hn        1 MOL      0.104558
    180 Ca1         2.2690   -0.3020    0.8510 Ca        1 MOL      1.754619
    181 O27         0.4130   -0.2450    2.7250 oh        1 MOL     -0.929020
    182 H81         0.8010    0.4490    3.2590 ho        1 MOL      0.430986
    183 H82        -0.5270   -0.2080    2.9270 ho        1 MOL      0.430986
    184 O28         1.3850   -2.7510    1.0930 oh        1 MOL     -0.929020
    185 H83         0.7270   -3.0350    1.7310 ho        1 MOL      0.430986
    186 H84         2.2190   -2.9280    1.5220 ho        1 MOL      0.430986
@<TRIPOS>BOND
     1    1    2 1   
     2    1    4 1   
     3    1    5 1   
     4    1    6 1   
     5    2    3 2   
     6    2    7 1   
     7    7    8 1   
     8    7   15 1   
     9    8    9 1   
    10    8   11 1   
    11    8   16 1   
    12    9   10 2   
    13    9   19 1   
    14   11   12 1   
    15   11   17 1   
    16   11   18 1   
    17   12   13 1   
    18   12   14 1   
    19   19   20 1   
    20   19   27 1   
    21   20   21 1   
    22   20   23 1   
    23   20   28 1   
    24   21   22 2   
    25   21   38 1   
    26   23   24 1   
    27   23   25 1   
    28   23   29 1   
    29   24   26 1   
    30   24   30 1   
    31   24   31 1   
    32   25   32 1   
    33   25   33 1   
    34   25   34 1   
    35   26   35 1   
    36   26   36 1   
    37   26   37 1   
    38   38   39 1   
    39   38   46 1   
    40   39   40 1   
    41   39   42 1   
    42   39   47 1   
    43   40   41 2   
    44   40   50 1   
    45   42   43 1   
    46   42   48 1   
    47   42   49 1   
    48   43   44 1   
    49   43   45 1   
    50   50   51 1   
    51   50   54 1   
    52   51   52 1   
    53   51   55 1   
    54   51   56 1   
    55   52   53 2   
    56   52   57 1   
    57   57   58 1   
    58   57   65 1   
    59   58   59 1   
    60   58   61 1   
    61   58   66 1   
    62   59   60 2   
    63   59   69 1   
    64   61   62 1   
    65   61   67 1   
    66   61   68 1   
    67   62   63 1   
    68   62   64 1   
    69   69   70 1   
    70   69   73 1   
    71   70   71 1   
    72   70   74 1   
    73   70   75 1   
    74   71   72 2   
    75   71   76 1   
    76   76   77 1   
    77   76   85 1   
    78   77   78 1   
    79   77   80 1   
    80   77   86 1   
    81   78   79 2   
    82   78   93 1   
    83   80   81 1   
    84   80   87 1   
    85   80   88 1   
    86   81   82 1   
    87   81   89 1   
    88   81   90 1   
    89   82   83 1   
    90   82   84 2   
    91   83   91 1   
    92   83   92 1   
    93   93   94 1   
    94   93  100 1   
    95   94   95 1   
    96   94   97 1   
    97   94  101 1   
    98   95   96 2   
    99   95  109 1   
   100   97   98 1   
   101   97   99 1   
   102   97  102 1   
   103   98  103 1   
   104   98  104 1   
   105   98  105 1   
   106   99  106 1   
   107   99  107 1   
   108   99  108 1   
   109  109  110 1   
   110  109  117 1   
   111  110  111 1   
   112  110  113 1   
   113  110  118 1   
   114  111  112 2   
   115  111  123 1   
   116  113  114 1   
   117  113  119 1   
   118  113  120 1   
   119  114  115 1   
   120  114  116 2   
   121  115  121 1   
   122  115  122 1   
   123  123  124 1   
   124  123  135 1   
   125  124  125 1   
   126  124  127 1   
   127  124  136 1   
   128  125  126 2   
   129  125  144 1   
   130  127  128 1   
   131  127  137 1   
   132  127  138 1   
   133  128  129 ar  
   134  128  130 ar  
   135  129  131 ar  
   136  129  139 1   
   137  130  132 ar  
   138  130  140 1   
   139  131  133 ar  
   140  131  141 1   
   141  132  133 ar  
   142  132  142 1   
   143  133  134 1   
   144  134  143 1   
   145  144  145 1   
   146  144  153 1   
   147  145  146 1   
   148  145  148 1   
   149  145  154 1   
   150  146  147 2   
   151  146  159 1   
   152  148  149 1   
   153  148  155 1   
   154  148  156 1   
   155  149  150 1   
   156  149  157 1   
   157  149  158 1   
   158  150  151 1   
   159  150  152 1   
   160  159  160 1   
   161  159  168 1   
   162  160  161 1   
   163  160  163 1   
   164  160  169 1   
   165  161  162 2   
   166  161  174 1   
   167  163  164 1   
   168  163  170 1   
   169  163  171 1   
   170  164  165 1   
   171  164  172 1   
   172  164  173 1   
   173  165  166 1   
   174  165  167 1   
   175  174  175 1   
   176  174  179 1   
   177  175  176 1   
   178  175  177 1   
   179  175  178 1   
   180  181  182 1   
   181  181  183 1   
   182  184  185 1   
   183  184  186 1   
@<TRIPOS>SUBSTRUCTURE
     1 MOL         1 TEMP              0 ****  ****    0 ROOT
