@<TRIPOS>MOLECULE
MOL
  186   183     1     0     0
SMALL
resp


@<TRIPOS>ATOM
      1 C1          0.3440   -1.1050    6.5730 c3        1 MOL     -0.284097
      2 C2          0.5690   -1.4230    5.0690 c         1 MOL      0.804969
      3 O1         -0.2690   -1.9820    4.3880 o         1 MOL     -0.599018
      4 H1          1.1130   -1.5980    7.1680 hc        1 MOL      0.065297
      5 H2          0.3990   -0.0280    6.7300 hc        1 MOL      0.065297
      6 H3         -0.6380   -1.4670    6.8790 hc        1 MOL      0.065297
      7 N1          1.7350   -1.0340    4.4630 n         1 MOL     -0.728169
      8 C3          2.2310   -1.2560    3.1470 c3        1 MOL      0.414692
      9 C4          2.5240   -2.7780    2.9120 c         1 MOL      0.394714
     10 O2          2.8000   -3.5200    3.8550 o         1 MOL     -0.589157
     11 C5          3.5810   -0.4730    3.0520 c3        1 MOL     -0.249368
     12 C6          4.2790   -0.6340    1.6740 c         1 MOL      0.720425
     13 O3          5.5540   -0.5580    1.6450 o         1 MOL     -0.667165
     14 O4          3.5970   -0.8430    0.6390 o         1 MOL     -0.667165
     15 H4          2.3520   -0.4610    5.0130 hn        1 MOL      0.295110
     16 H5          1.4840   -0.9640    2.4020 h1        1 MOL     -0.024756
     17 H6          4.3110   -0.8510    3.7740 hc        1 MOL      0.044794
     18 H7          3.3810    0.5810    3.2200 hc        1 MOL      0.044794
     19 N2          2.5790   -3.2710    1.6800 n         1 MOL      0.050910
     20 C7          2.7510   -4.6200    1.4420 c3        1 MOL      0.003990
     21 C8          4.0060   -4.9060    0.6230 c         1 MOL      0.471973
     22 O5          4.8760   -5.6370    0.9620 o         1 MOL     -0.577803
     23 C9          1.4600   -5.1170    0.8400 c3        1 MOL      0.180880
     24 C10         0.1300   -4.7770    1.6700 c3        1 MOL      0.184230
     25 C11         1.5310   -6.6640    0.7490 c3        1 MOL     -0.383021
     26 C12        -1.1840   -5.5300    1.4090 c3        1 MOL     -0.368609
     27 H8          2.5540   -2.5820    0.9460 hn        1 MOL     -0.214270
     28 H9          2.9430   -5.2430    2.3040 h1        1 MOL      0.043430
     29 H10         1.3690   -4.7680   -0.1930 hc        1 MOL      0.000209
     30 H11        -0.1930   -3.7520    1.4680 hc        1 MOL     -0.014068
     31 H12         0.3410   -4.9460    2.7270 hc        1 MOL     -0.014068
     32 H13         2.5050   -7.0480    0.4620 hc        1 MOL      0.072797
     33 H14         1.3520   -6.9110    1.7910 hc        1 MOL      0.072797
     34 H15         0.8090   -7.1110    0.0490 hc        1 MOL      0.072797
     35 H16        -1.4540   -5.2140    0.3940 hc        1 MOL      0.083478
     36 H17        -1.0700   -6.6040    1.4610 hc        1 MOL      0.083478
     37 H18        -1.9600   -5.0980    2.0450 hc        1 MOL      0.083478
     38 N3          4.0390   -4.2110   -0.4840 n         1 MOL     -0.213459
     39 C13         5.1440   -4.3530   -1.4420 c3        1 MOL     -0.150545
     40 C14         6.4420   -3.6550   -1.1350 c         1 MOL      0.471402
     41 O6          7.4390   -3.7290   -1.8700 o         1 MOL     -0.528278
     42 C15         4.5760   -4.1770   -2.9490 c3        1 MOL     -0.210784
     43 C16         3.7970   -3.0080   -3.2390 c         1 MOL      0.849046
     44 O7          3.6830   -2.0580   -2.4160 o         1 MOL     -0.737866
     45 O8          3.2420   -3.0400   -4.3820 o         1 MOL     -0.737866
     46 H19         3.2860   -3.5840   -0.7290 hn        1 MOL      0.248294
     47 H20         5.4180   -5.4090   -1.4520 h1        1 MOL      0.114334
     48 H21         4.0070   -5.0630   -3.2280 hc        1 MOL      0.052270
     49 H22         5.4100   -4.1260   -3.6510 hc        1 MOL      0.052270
     50 N4          6.4690   -2.8890   -0.0470 n         1 MOL     -0.194018
     51 C17         7.7760   -2.3430    0.4210 c3        1 MOL     -0.145115
     52 C18         8.2330   -1.1530   -0.4170 c         1 MOL      0.386260
     53 O9          9.4530   -1.0940   -0.8250 o         1 MOL     -0.585678
     54 H23         5.6100   -2.5630    0.3720 hn        1 MOL      0.213150
     55 H24         8.5350   -3.1220    0.3380 h1        1 MOL      0.092490
     56 H25         7.7110   -2.0450    1.4650 h1        1 MOL      0.092490
     57 N5          7.3430   -0.2530   -0.7840 n         1 MOL     -0.082018
     58 C19         7.5570    0.9330   -1.5340 c3        1 MOL      0.131823
     59 C20         7.4350    2.1770   -0.6520 c         1 MOL      0.405557
     60 O10         7.9590    3.1760   -1.0690 o         1 MOL     -0.551296
     61 C21         6.6230    1.0830   -2.8400 c3        1 MOL     -0.305161
     62 C22         5.1410    0.9640   -2.5080 c         1 MOL      0.888564
     63 O11         4.7490    1.0170   -1.3300 o         1 MOL     -0.816147
     64 O12         4.2250    0.8160   -3.3620 o         1 MOL     -0.816147
     65 H26         6.3980   -0.5080   -0.5360 hn        1 MOL      0.148267
     66 H27         8.5830    0.9050   -1.8790 h1        1 MOL      0.045057
     67 H28         6.8310    0.1570   -3.3670 hc        1 MOL      0.080982
     68 H29         6.8790    2.0040   -3.3740 hc        1 MOL      0.080982
     69 N6          6.9630    2.1890    0.5860 n         1 MOL     -0.274682
     70 C23         6.8040    3.3020    1.5560 c3        1 MOL     -0.057683
     71 C24         5.5710    4.2350    1.4140 c         1 MOL      0.515177
     72 O13         5.5550    5.3810    1.8790 o         1 MOL     -0.596795
     73 H30         6.6010    1.3120    0.9280 hn        1 MOL      0.183848
     74 H31         7.6050    4.0390    1.4820 h1        1 MOL      0.067568
     75 H32         6.8750    2.8650    2.5510 h1        1 MOL      0.067568
     76 N7          4.4970    3.7390    0.7900 n         1 MOL     -0.296927
     77 C25         3.2050    4.3260    0.6480 c3        1 MOL     -0.071727
     78 C26         2.0150    3.3350    0.6970 c         1 MOL      0.587486
     79 O14         2.1580    2.1960    0.2750 o         1 MOL     -0.640645
     80 C27         3.1490    5.1510   -0.6270 c3        1 MOL     -0.039875
     81 C28         4.1510    6.3600   -0.5670 c3        1 MOL     -0.318125
     82 C29         3.7570    7.4220   -1.5160 c         1 MOL      0.709197
     83 N8          4.3400    8.6110   -1.4480 n         1 MOL     -0.829492
     84 O15         2.7920    7.3220   -2.3050 o         1 MOL     -0.574847
     85 H33         4.5720    2.7970    0.4280 hn        1 MOL      0.294352
     86 H34         2.9380    4.8780    1.5450 h1        1 MOL      0.040350
     87 H35         2.1010    5.4410   -0.7070 hc        1 MOL      0.047706
     88 H36         3.3370    4.4770   -1.4620 hc        1 MOL      0.047706
     89 H37         5.1850    6.0360   -0.6920 hc        1 MOL      0.131107
     90 H38         4.1230    6.8270    0.4200 hc        1 MOL      0.131107
     91 H39         5.1150    8.7400   -0.8220 hn        1 MOL      0.356394
     92 H40         4.0210    9.4270   -1.9570 hn        1 MOL      0.356394
     93 N9          0.8530    3.7590    1.2370 n         1 MOL     -0.286120
     94 C30        -0.3250    2.8800    1.6000 c3        1 MOL     -0.019808
     95 C31        -1.4950    3.1560    0.6150 c         1 MOL      0.209227
     96 O16        -2.0590    4.2640    0.6300 o         1 MOL     -0.530912
     97 C32        -0.7720    3.0490    3.0860 c3        1 MOL      0.356632
     98 C33        -1.5610    1.7840    3.4480 c3        1 MOL     -0.359728
     99 C34         0.3110    3.0520    4.1420 c3        1 MOL     -0.359728
    100 H41         0.8800    4.6790    1.6430 hn        1 MOL      0.224549
    101 H42        -0.0720    1.8520    1.3440 h1        1 MOL      0.108360
    102 H43        -1.3770    3.9380    3.2150 hc        1 MOL     -0.038465
    103 H44        -2.1630    2.1330    4.2930 hc        1 MOL      0.075020
    104 H45        -2.1630    1.4580    2.5970 hc        1 MOL      0.075020
    105 H46        -0.9220    0.9590    3.7500 hc        1 MOL      0.075020
    106 H47         1.0670    2.3290    3.8270 hc        1 MOL      0.075020
    107 H48         0.8480    3.9960    4.0790 hc        1 MOL      0.075020
    108 H49        -0.1330    2.9000    5.1270 hc        1 MOL      0.075020
    109 N10        -1.7300    2.2660   -0.3360 n         1 MOL     -0.000267
    110 C35        -2.9900    2.3840   -1.1730 c3        1 MOL     -0.073417
    111 C36        -4.2860    1.9690   -0.3570 c         1 MOL      0.366726
    112 O17        -4.1950    1.4180    0.7560 o         1 MOL     -0.296798
    113 C37        -2.8690    1.4400   -2.4010 c3        1 MOL     -0.064546
    114 C38        -3.8650    1.7900   -3.4650 c         1 MOL      0.631978
    115 N11        -3.7390    2.9440   -4.0590 n         1 MOL     -0.769954
    116 O18        -4.7490    0.9580   -3.7110 o         1 MOL     -0.553510
    117 H50        -1.0320    1.5490   -0.4620 hn        1 MOL      0.157658
    118 H51        -3.2000    3.3900   -1.5310 h1        1 MOL      0.052042
    119 H52        -3.1080    0.4440   -2.0380 hc        1 MOL      0.046278
    120 H53        -1.8840    1.3600   -2.8700 hc        1 MOL      0.046278
    121 H54        -2.9600    3.5810   -3.9130 hn        1 MOL      0.359454
    122 H55        -4.4260    3.1810   -4.7540 hn        1 MOL      0.359454
    123 N12        -5.5060    2.0650   -0.9520 n         1 MOL     -0.332618
    124 C39        -6.7070    1.6830   -0.3080 c3        1 MOL     -0.029568
    125 C40        -6.8600    0.2360   -0.0630 c         1 MOL      0.791007
    126 O19        -7.2500   -0.2070    0.9990 o         1 MOL     -0.553032
    127 C41        -7.9160    2.2880   -1.0780 c3        1 MOL     -0.141946
    128 C42        -9.2470    2.0240   -0.2840 ca        1 MOL     -0.059156
    129 C43        -9.6450    2.9340    0.7140 ca        1 MOL     -0.123499
    130 C44       -10.1050    0.9390   -0.6040 ca        1 MOL     -0.123499
    131 C45       -10.8020    2.6850    1.4500 ca        1 MOL     -0.253454
    132 C46       -11.3330    0.7260    0.0270 ca        1 MOL     -0.253454
    133 C47       -11.6730    1.5810    1.1060 ca        1 MOL      0.347363
    134 O20       -12.8030    1.5010    1.8310 oh        1 MOL     -0.541834
    135 H56        -5.5690    2.5460   -1.8300 hn        1 MOL      0.229250
    136 H57        -6.6140    2.1040    0.6910 h1        1 MOL      0.081428
    137 H58        -7.9960    1.9800   -2.1150 hc        1 MOL      0.080719
    138 H59        -7.8090    3.3700   -1.1770 hc        1 MOL      0.080719
    139 H60        -8.9900    3.7490    1.0030 ha        1 MOL      0.129580
    140 H61        -9.9080    0.3180   -1.4690 ha        1 MOL      0.129580
    141 H62       -11.0400    3.3380    2.2770 ha        1 MOL      0.139932
    142 H63       -12.0100   -0.0650   -0.2440 ha        1 MOL      0.139932
    143 H64       -13.3410    0.7360    1.6270 ho        1 MOL      0.396696
    144 N13        -6.5520   -0.5760   -1.1020 n         1 MOL     -0.551639
    145 C48        -6.3870   -2.0870   -1.1240 c3        1 MOL     -0.028728
    146 C49        -5.3960   -2.4600   -0.0640 c         1 MOL      0.216402
    147 O21        -5.5000   -3.6340    0.4320 o         1 MOL     -0.511532
    148 C50        -6.0370   -2.6470   -2.5590 c3        1 MOL      0.113336
    149 C51        -7.3220   -2.7070   -3.4650 c3        1 MOL     -0.223671
    150 C52        -7.1200   -3.6860   -4.6650 c         1 MOL      0.674702
    151 O22        -7.5790   -4.8450   -4.6410 o         1 MOL     -0.724548
    152 O23        -6.3820   -3.2960   -5.5930 o         1 MOL     -0.724548
    153 H65        -6.2290   -0.0590   -1.9010 hn        1 MOL      0.282711
    154 H66        -7.3640   -2.5070   -0.9180 h1        1 MOL      0.136011
    155 H67        -5.6030   -3.6470   -2.4740 hc        1 MOL      0.035450
    156 H68        -5.2160   -2.0110   -2.8970 hc        1 MOL      0.035450
    157 H69        -7.6080   -1.6980   -3.7840 hc        1 MOL      0.009725
    158 H70        -8.1770   -3.0410   -2.8800 hc        1 MOL      0.009725
    159 N14        -4.4810   -1.6160    0.4300 n         1 MOL      0.009903
    160 C53        -3.5270   -1.9340    1.4860 c3        1 MOL     -0.062364
    161 C54        -4.1460   -1.3200    2.8030 c         1 MOL      0.404479
    162 O24        -3.8040   -1.8160    3.9520 o         1 MOL     -0.551563
    163 C55        -2.1280   -1.3450    1.1450 c3        1 MOL      0.112577
    164 C56        -1.6070   -1.8680   -0.1730 c3        1 MOL     -0.045682
    165 C57        -0.2790   -1.1670   -0.5090 c         1 MOL      0.717537
    166 O25         0.7170   -1.9640   -0.6400 o         1 MOL     -0.743029
    167 O26        -0.0290    0.0650   -0.5640 o         1 MOL     -0.743029
    168 H71        -4.6020   -0.6220    0.2710 hn        1 MOL      0.049650
    169 H72        -3.5820   -2.9950    1.7160 h1        1 MOL      0.112445
    170 H73        -1.4830   -1.5880    1.9970 hc        1 MOL      0.031297
    171 H74        -2.2500   -0.2620    1.1890 hc        1 MOL      0.031297
    172 H75        -2.2950   -1.6370   -0.9990 hc        1 MOL     -0.001124
    173 H76        -1.5310   -2.9570   -0.1980 hc        1 MOL     -0.001124
    174 N15        -5.0490   -0.2910    2.7910 n         1 MOL     -0.062785
    175 C58        -5.5040    0.3760    3.9760 c3        1 MOL     -0.200778
    176 H77        -4.9610   -0.0070    4.8400 h1        1 MOL      0.074277
    177 H78        -5.3270    1.4470    3.8810 h1        1 MOL      0.074277
    178 H79        -6.5710    0.1940    4.1100 h1        1 MOL      0.074277
    179 H80        -5.1510    0.2460    1.9390 hn        1 MOL      0.027791
    180 Ca1         2.3640   -0.0490   -1.3890 Ca        1 MOL      1.815947
    181 O27         0.9180   -0.9540   -3.5250 oh        1 MOL     -0.847962
    182 H81         1.4440   -1.0780   -4.3100 ho        1 MOL      0.405007
    183 H82         0.0080   -1.0110   -3.8270 ho        1 MOL      0.405007
    184 O28         1.6520    2.4280   -2.8980 oh        1 MOL     -0.847962
    185 H83         2.5040    2.2200   -3.2690 ho        1 MOL      0.405007
    186 H84         1.5640    3.3680   -3.0220 ho        1 MOL      0.405007
@<TRIPOS>BOND
     1    1    2 1   
     2    1    4 1   
     3    1    5 1   
     4    1    6 1   
     5    2    3 2   
     6    2    7 1   
     7    7    8 1   
     8    7   15 1   
     9    8    9 1   
    10    8   11 1   
    11    8   16 1   
    12    9   10 2   
    13    9   19 1   
    14   11   12 1   
    15   11   17 1   
    16   11   18 1   
    17   12   13 1   
    18   12   14 1   
    19   19   20 1   
    20   19   27 1   
    21   20   21 1   
    22   20   23 1   
    23   20   28 1   
    24   21   22 2   
    25   21   38 1   
    26   23   24 1   
    27   23   25 1   
    28   23   29 1   
    29   24   26 1   
    30   24   30 1   
    31   24   31 1   
    32   25   32 1   
    33   25   33 1   
    34   25   34 1   
    35   26   35 1   
    36   26   36 1   
    37   26   37 1   
    38   38   39 1   
    39   38   46 1   
    40   39   40 1   
    41   39   42 1   
    42   39   47 1   
    43   40   41 2   
    44   40   50 1   
    45   42   43 1   
    46   42   48 1   
    47   42   49 1   
    48   43   44 1   
    49   43   45 1   
    50   50   51 1   
    51   50   54 1   
    52   51   52 1   
    53   51   55 1   
    54   51   56 1   
    55   52   53 2   
    56   52   57 1   
    57   57   58 1   
    58   57   65 1   
    59   58   59 1   
    60   58   61 1   
    61   58   66 1   
    62   59   60 2   
    63   59   69 1   
    64   61   62 1   
    65   61   67 1   
    66   61   68 1   
    67   62   63 1   
    68   62   64 1   
    69   69   70 1   
    70   69   73 1   
    71   70   71 1   
    72   70   74 1   
    73   70   75 1   
    74   71   72 2   
    75   71   76 1   
    76   76   77 1   
    77   76   85 1   
    78   77   78 1   
    79   77   80 1   
    80   77   86 1   
    81   78   79 2   
    82   78   93 1   
    83   80   81 1   
    84   80   87 1   
    85   80   88 1   
    86   81   82 1   
    87   81   89 1   
    88   81   90 1   
    89   82   83 1   
    90   82   84 2   
    91   83   91 1   
    92   83   92 1   
    93   93   94 1   
    94   93  100 1   
    95   94   95 1   
    96   94   97 1   
    97   94  101 1   
    98   95   96 2   
    99   95  109 1   
   100   97   98 1   
   101   97   99 1   
   102   97  102 1   
   103   98  103 1   
   104   98  104 1   
   105   98  105 1   
   106   99  106 1   
   107   99  107 1   
   108   99  108 1   
   109  109  110 1   
   110  109  117 1   
   111  110  111 1   
   112  110  113 1   
   113  110  118 1   
   114  111  112 2   
   115  111  123 1   
   116  113  114 1   
   117  113  119 1   
   118  113  120 1   
   119  114  115 1   
   120  114  116 2   
   121  115  121 1   
   122  115  122 1   
   123  123  124 1   
   124  123  135 1   
   125  124  125 1   
   126  124  127 1   
   127  124  136 1   
   128  125  126 2   
   129  125  144 1   
   130  127  128 1   
   131  127  137 1   
   132  127  138 1   
   133  128  129 ar  
   134  128  130 ar  
   135  129  131 ar  
   136  129  139 1   
   137  130  132 ar  
   138  130  140 1   
   139  131  133 ar  
   140  131  141 1   
   141  132  133 ar  
   142  132  142 1   
   143  133  134 1   
   144  134  143 1   
   145  144  145 1   
   146  144  153 1   
   147  145  146 1   
   148  145  148 1   
   149  145  154 1   
   150  146  147 2   
   151  146  159 1   
   152  148  149 1   
   153  148  155 1   
   154  148  156 1   
   155  149  150 1   
   156  149  157 1   
   157  149  158 1   
   158  150  151 1   
   159  150  152 1   
   160  159  160 1   
   161  159  168 1   
   162  160  161 1   
   163  160  163 1   
   164  160  169 1   
   165  161  162 2   
   166  161  174 1   
   167  163  164 1   
   168  163  170 1   
   169  163  171 1   
   170  164  165 1   
   171  164  172 1   
   172  164  173 1   
   173  165  166 1   
   174  165  167 1   
   175  174  175 1   
   176  174  179 1   
   177  175  176 1   
   178  175  177 1   
   179  175  178 1   
   180  181  182 1   
   181  181  183 1   
   182  184  185 1   
   183  184  186 1   
@<TRIPOS>SUBSTRUCTURE
     1 MOL         1 TEMP              0 ****  ****    0 ROOT
