@<TRIPOS>MOLECULE
MOL
  175   173     1     0     0
SMALL
resp


@<TRIPOS>ATOM
      1 C1          0.4800    4.4930    5.3220 c3        1 MOL     -0.383715
      2 C2         -0.1190    4.4460    3.8850 c         1 MOL      0.720756
      3 O1          0.6240    4.5950    2.8960 o         1 MOL     -0.553057
      4 H1          1.4650    4.9580    5.2890 hc        1 MOL      0.093437
      5 H2         -0.1750    5.0770    5.9700 hc        1 MOL      0.093437
      6 H3          0.5700    3.4790    5.7120 hc        1 MOL      0.093437
      7 N1         -1.4630    4.2510    3.7400 n         1 MOL     -0.686976
      8 C3         -2.0260    3.6650    2.4150 c3        1 MOL      0.064409
      9 C4         -2.2670    4.8510    1.4540 c         1 MOL      0.767531
     10 O2         -2.7260    5.9250    1.8010 o         1 MOL     -0.606920
     11 C5         -3.3870    2.9410    2.8000 c3        1 MOL     -0.359271
     12 C6         -4.1530    2.2730    1.6980 c         1 MOL      0.837647
     13 O3         -5.3150    1.9520    1.8740 o         1 MOL     -0.693779
     14 O4         -3.5500    1.9100    0.6440 o         1 MOL     -0.693779
     15 H4         -2.0110    4.1500    4.5810 hn        1 MOL      0.350299
     16 H5         -1.3670    2.9170    1.9710 h1        1 MOL      0.114900
     17 H6         -4.0190    3.7020    3.2430 hc        1 MOL      0.078066
     18 H7         -3.3180    2.1240    3.5180 hc        1 MOL      0.078066
     19 N2         -2.1670    4.6190    0.1750 n         1 MOL     -0.744149
     20 C7         -2.5970    5.5410   -0.9110 c3        1 MOL      0.470031
     21 C8         -3.5610    4.9530   -2.0250 c         1 MOL      0.249181
     22 O5         -3.9010    5.6290   -2.9610 o         1 MOL     -0.537355
     23 C9         -1.3260    6.2100   -1.3910 c3        1 MOL     -0.268705
     24 H8         -1.9370    3.6790   -0.1000 hn        1 MOL      0.338127
     25 H9         -3.1530    6.3490   -0.4370 h1        1 MOL     -0.000895
     26 H10        -1.5490    7.1600   -1.8740 hc        1 MOL      0.062372
     27 H11        -0.7800    6.4600   -0.4820 hc        1 MOL      0.062372
     28 H12        -0.7060    5.5740   -2.0290 hc        1 MOL      0.062372
     29 N3         -3.9650    3.6910   -1.9510 n         1 MOL     -0.063188
     30 C10        -4.8590    3.1040   -3.0080 c3        1 MOL      0.061477
     31 C11        -6.1470    2.4230   -2.4910 c         1 MOL      0.390679
     32 O6         -7.0190    2.0480   -3.2640 o         1 MOL     -0.544506
     33 C12        -4.0280    2.1380   -3.8500 c3        1 MOL     -0.223042
     34 C13        -3.3050    1.1590   -2.9510 c         1 MOL      0.721862
     35 O7         -3.8970    0.5120   -2.1030 o         1 MOL     -0.724951
     36 O8         -2.0440    1.1710   -2.9850 o         1 MOL     -0.724951
     37 H13        -3.7720    3.1690   -1.1080 hn        1 MOL      0.075917
     38 H14        -5.3230    3.8980   -3.5860 h1        1 MOL      0.084486
     39 H15        -3.2940    2.7210   -4.3940 hc        1 MOL      0.063036
     40 H16        -4.6870    1.6800   -4.5820 hc        1 MOL      0.063036
     41 N4         -6.2950    2.1040   -1.2480 n         1 MOL     -0.294611
     42 C14        -7.3290    1.1520   -0.7050 c3        1 MOL      0.041560
     43 C15        -7.3770   -0.2460   -1.2100 c         1 MOL      0.429067
     44 O9         -8.4710   -0.7610   -1.4000 o         1 MOL     -0.602922
     45 H17        -5.6170    2.4220   -0.5680 hn        1 MOL      0.160001
     46 H18        -8.3260    1.5890   -0.7240 h1        1 MOL      0.052817
     47 H19        -7.1420    0.8800    0.3300 h1        1 MOL      0.052817
     48 N5         -6.2530   -0.8930   -1.4700 n         1 MOL     -0.083691
     49 C16        -6.2100   -2.3080   -1.9750 c3        1 MOL     -0.200176
     50 C17        -6.1860   -3.3840   -0.8280 c         1 MOL      0.464454
     51 O10        -6.0530   -4.5790   -1.0860 o         1 MOL     -0.529985
     52 C18        -5.1060   -2.5110   -2.9710 c3        1 MOL     -0.028887
     53 C19        -3.7190   -2.5990   -2.4420 c         1 MOL      0.656790
     54 N6         -2.6390   -2.6720   -3.2530 n         1 MOL     -0.743465
     55 O11        -3.5030   -2.5500   -1.2620 o         1 MOL     -0.528119
     56 H20        -5.4430   -0.3140   -1.6130 hn        1 MOL      0.249438
     57 H21        -7.1150   -2.4470   -2.5540 h1        1 MOL      0.140651
     58 H22        -5.1130   -1.7080   -3.7030 hc        1 MOL      0.022749
     59 H23        -5.2040   -3.4360   -3.5410 hc        1 MOL      0.022749
     60 H24        -2.7280   -2.7430   -4.2550 hn        1 MOL      0.344680
     61 H25        -1.7360   -2.6620   -2.7940 hn        1 MOL      0.344680
     62 N7         -6.2640   -2.9730    0.4350 n         1 MOL     -0.204856
     63 C20        -6.3500   -3.7610    1.6790 c3        1 MOL     -0.340140
     64 C21        -4.9270   -4.3160    2.1130 c         1 MOL      0.603648
     65 O12        -4.8340   -4.9870    3.1470 o         1 MOL     -0.592398
     66 H26        -6.0510   -1.9870    0.4770 hn        1 MOL      0.164955
     67 H27        -7.0510   -4.5940    1.6150 h1        1 MOL      0.154502
     68 H28        -6.6640   -3.0230    2.4130 h1        1 MOL      0.154502
     69 N8         -3.8400   -4.0130    1.3470 n         1 MOL     -0.303722
     70 C22        -2.4200   -4.4900    1.6390 c3        1 MOL     -0.010961
     71 C23        -1.3880   -3.3250    1.6660 c         1 MOL      0.389504
     72 O13        -1.4490   -2.4670    0.8090 o         1 MOL     -0.530516
     73 C24        -1.9330   -5.4500    0.5540 c3        1 MOL      0.554935
     74 C25        -2.3550   -6.8830    0.8000 c3        1 MOL     -0.376335
     75 O14        -2.4310   -5.1440   -0.7160 oh        1 MOL     -0.633795
     76 H29        -4.0740   -3.5450    0.4770 hn        1 MOL      0.130759
     77 H30        -2.4620   -4.9750    2.6140 h1        1 MOL      0.080306
     78 H31        -0.8500   -5.5000    0.6470 h1        1 MOL     -0.047657
     79 H32        -2.7800   -4.2560   -0.7080 ho        1 MOL      0.392954
     80 H33        -2.2070   -7.1370    1.8490 hc        1 MOL      0.077343
     81 H34        -3.4270   -7.0000    0.6660 hc        1 MOL      0.077343
     82 H35        -1.9250   -7.6150    0.1130 hc        1 MOL      0.077343
     83 N9         -0.3420   -3.4450    2.4900 n         1 MOL     -0.547645
     84 C26         0.8250   -2.5690    2.3260 c3        1 MOL      0.186717
     85 C27         1.6910   -2.9480    1.1050 c         1 MOL      0.598988
     86 O15         2.1820   -4.0880    0.9750 o         1 MOL     -0.603233
     87 C28         1.6060   -2.4740    3.6330 c3        1 MOL     -0.112540
     88 C29         1.0760   -1.2810    4.5420 c3        1 MOL      0.155180
     89 C30         3.1870   -2.5660    3.5080 c3        1 MOL     -0.033752
     90 C31         1.9290   -1.0300    5.8190 c3        1 MOL     -0.246294
     91 H36        -0.2260   -4.3150    2.9770 hn        1 MOL      0.289418
     92 H37         0.3810   -1.5870    2.1630 h1        1 MOL      0.022589
     93 H38         1.4500   -3.4260    4.1550 hc        1 MOL      0.037106
     94 H39         0.0550   -1.4820    4.8420 hc        1 MOL     -0.031467
     95 H40         1.0090   -0.4420    3.8530 hc        1 MOL     -0.031467
     96 H41         3.5130   -3.4520    2.9700 hc        1 MOL      0.000133
     97 H42         3.6280   -1.7010    3.0170 hc        1 MOL      0.000133
     98 H43         3.5950   -2.6140    4.5170 hc        1 MOL      0.000133
     99 H44         2.0890   -2.0080    6.2690 hc        1 MOL      0.058738
    100 H45         2.7880   -0.4180    5.5490 hc        1 MOL      0.058738
    101 H46         1.3620   -0.4500    6.5530 hc        1 MOL      0.058738
    102 N10         1.8910   -1.9540    0.2560 n         1 MOL     -0.296041
    103 C32         2.6300   -2.0750   -1.0080 c3        1 MOL      0.212270
    104 C33         4.1150   -1.6710   -0.7410 c         1 MOL      0.325288
    105 O16         4.3700   -0.9140    0.2750 o         1 MOL     -0.386111
    106 C34         2.0260   -1.0990   -2.0700 c3        1 MOL     -0.225723
    107 C35         0.5940   -1.5120   -2.4030 c         1 MOL      0.661770
    108 O17        -0.3480   -1.4430   -1.6350 o         1 MOL     -0.661532
    109 O18         0.4490   -2.0830   -3.5110 o         1 MOL     -0.661532
    110 H47         1.3710   -1.0960    0.3330 hn        1 MOL      0.156894
    111 H48         2.6430   -3.1020   -1.3600 h1        1 MOL      0.040129
    112 H49         2.6280   -1.2080   -2.9720 hc        1 MOL      0.067673
    113 H50         2.1000   -0.0840   -1.6810 hc        1 MOL      0.067673
    114 N11         5.1340   -2.0000   -1.5630 n         1 MOL     -0.565653
    115 C36         6.4830   -1.5830   -1.2560 c3        1 MOL      0.306882
    116 C37         6.6270   -0.0310   -1.0960 c         1 MOL      0.275166
    117 O19         7.2680    0.3650   -0.1190 o         1 MOL     -0.489038
    118 C38         7.4480   -2.1550   -2.3240 c3        1 MOL     -0.187192
    119 C39         8.9530   -1.8300   -2.2070 ca        1 MOL     -0.007527
    120 C40         9.6220   -2.1320   -0.9890 ca        1 MOL     -0.061538
    121 C41         9.6640   -1.2080   -3.2170 ca        1 MOL     -0.061538
    122 C42        11.0230   -1.8930   -0.8840 ca        1 MOL     -0.193707
    123 C43        11.0690   -0.9560   -3.1330 ca        1 MOL     -0.193707
    124 C44        11.7310   -1.2540   -1.9390 ca        1 MOL     -0.042096
    125 H51         4.9200   -2.3960   -2.4650 hn        1 MOL      0.320405
    126 H52         6.8150   -2.0130   -0.3020 h1        1 MOL      0.090926
    127 H53         7.1520   -1.9680   -3.3480 hc        1 MOL      0.064810
    128 H54         7.3900   -3.2310   -2.2210 hc        1 MOL      0.064810
    129 H55         9.0660   -2.5920   -0.1760 ha        1 MOL      0.094763
    130 H56         9.1660   -0.9260   -4.1360 ha        1 MOL      0.094763
    131 H57        11.4920   -2.0220    0.0830 ha        1 MOL      0.124215
    132 H58        11.6570   -0.6630   -3.9970 ha        1 MOL      0.124215
    133 H59        12.7660   -0.9500   -1.8440 ha        1 MOL      0.092250
    134 N12         6.0110    0.9190   -1.8740 n         1 MOL      0.060545
    135 C45         6.1810    2.3830   -1.6630 c3        1 MOL     -0.141951
    136 C46         5.5880    2.7050   -0.2380 c         1 MOL      0.271858
    137 O20         6.0710    3.6830    0.3940 o         1 MOL     -0.510172
    138 C47         5.3470    2.9480   -2.8290 c3        1 MOL      0.074618
    139 C48         5.4330    1.9460   -3.9100 c3        1 MOL     -0.160290
    140 C49         5.3430    0.6200   -3.1560 c3        1 MOL     -0.016879
    141 H60         7.2280    2.6380   -1.7590 h1        1 MOL      0.112454
    142 H61         4.3150    3.0480   -2.4920 hc        1 MOL      0.031183
    143 H62         5.5700    3.9150   -3.2910 hc        1 MOL      0.031183
    144 H63         4.5280    1.9910   -4.5090 hc        1 MOL      0.057108
    145 H64         6.3610    1.9890   -4.4720 hc        1 MOL      0.057108
    146 H65         4.3020    0.3310   -3.0030 h1        1 MOL      0.023662
    147 H66         5.9770   -0.1340   -3.6320 h1        1 MOL      0.023662
    148 N13         4.5790    2.0270    0.3310 n         1 MOL      0.004489
    149 C50         4.0780    2.3210    1.6760 c3        1 MOL     -0.252118
    150 C51         4.8760    1.5480    2.7470 c         1 MOL      0.534823
    151 O21         4.9890    2.0410    3.8360 o         1 MOL     -0.578561
    152 C52         2.6810    1.7550    1.7350 c3        1 MOL      0.019963
    153 C53         1.7240    2.3210    0.6430 c3        1 MOL     -0.011495
    154 C54         0.3380    1.6340    0.5000 c         1 MOL      0.453312
    155 O22         0.1070    0.5510    1.1360 o         1 MOL     -0.621924
    156 O23        -0.5400    2.0970   -0.2400 o         1 MOL     -0.621924
    157 H67         4.2550    1.1920   -0.1350 hn        1 MOL      0.075326
    158 H68         4.1040    3.3980    1.8510 h1        1 MOL      0.161945
    159 H69         2.2250    1.9160    2.7090 hc        1 MOL      0.038180
    160 H70         2.6740    0.6680    1.7420 hc        1 MOL      0.038180
    161 H71         2.1720    2.2760   -0.3570 hc        1 MOL      0.040247
    162 H72         1.6950    3.3850    0.8550 hc        1 MOL      0.040247
    163 N14         5.5980    0.4720    2.4570 n         1 MOL     -0.044491
    164 C55         6.5760   -0.0710    3.3470 c3        1 MOL     -0.207774
    165 H73         6.9400    0.7140    4.0090 h1        1 MOL      0.066884
    166 H74         6.1250   -0.8670    3.9410 h1        1 MOL      0.066884
    167 H75         7.4090   -0.4750    2.7710 h1        1 MOL      0.066884
    168 H76         5.4240   -0.1090    1.6530 hn        1 MOL      0.134464
    169 Ca1        -2.0690   -0.0220   -0.3870 Ca        1 MOL      1.667293
    170 O24        -4.6110   -0.7150    1.2050 oh        1 MOL     -0.664756
    171 H77        -4.9070    0.1660    1.4510 ho        1 MOL      0.339101
    172 H78        -4.4100   -1.1430    2.0350 ho        1 MOL      0.339101
    173 O25        -2.0470    0.0210    2.7050 oh        1 MOL     -0.664756
    174 H79        -1.9570   -0.1240    3.6490 ho        1 MOL      0.339101
    175 H80        -1.1510    0.1810    2.4030 ho        1 MOL      0.339101
@<TRIPOS>BOND
     1    1    2 1   
     2    1    4 1   
     3    1    5 1   
     4    1    6 1   
     5    2    3 2   
     6    2    7 1   
     7    7    8 1   
     8    7   15 1   
     9    8    9 1   
    10    8   11 1   
    11    8   16 1   
    12    9   10 2   
    13    9   19 1   
    14   11   12 1   
    15   11   17 1   
    16   11   18 1   
    17   12   13 1   
    18   12   14 1   
    19   19   20 1   
    20   19   24 1   
    21   20   21 1   
    22   20   23 1   
    23   20   25 1   
    24   21   22 2   
    25   21   29 1   
    26   23   26 1   
    27   23   27 1   
    28   23   28 1   
    29   29   30 1   
    30   29   37 1   
    31   30   31 1   
    32   30   33 1   
    33   30   38 1   
    34   31   32 2   
    35   31   41 1   
    36   33   34 1   
    37   33   39 1   
    38   33   40 1   
    39   34   35 1   
    40   34   36 1   
    41   41   42 1   
    42   41   45 1   
    43   42   43 1   
    44   42   46 1   
    45   42   47 1   
    46   43   44 2   
    47   43   48 1   
    48   48   49 1   
    49   48   56 1   
    50   49   50 1   
    51   49   52 1   
    52   49   57 1   
    53   50   51 2   
    54   50   62 1   
    55   52   53 1   
    56   52   58 1   
    57   52   59 1   
    58   53   54 1   
    59   53   55 2   
    60   54   60 1   
    61   54   61 1   
    62   62   63 1   
    63   62   66 1   
    64   63   64 1   
    65   63   67 1   
    66   63   68 1   
    67   64   65 2   
    68   64   69 1   
    69   69   70 1   
    70   69   76 1   
    71   70   71 1   
    72   70   73 1   
    73   70   77 1   
    74   71   72 2   
    75   71   83 1   
    76   73   74 1   
    77   73   75 1   
    78   73   78 1   
    79   74   80 1   
    80   74   81 1   
    81   74   82 1   
    82   75   79 1   
    83   83   84 1   
    84   83   91 1   
    85   84   85 1   
    86   84   87 1   
    87   84   92 1   
    88   85   86 2   
    89   85  102 1   
    90   87   88 1   
    91   87   89 1   
    92   87   93 1   
    93   88   90 1   
    94   88   94 1   
    95   88   95 1   
    96   89   96 1   
    97   89   97 1   
    98   89   98 1   
    99   90   99 1   
   100   90  100 1   
   101   90  101 1   
   102  102  103 1   
   103  102  110 1   
   104  103  104 1   
   105  103  106 1   
   106  103  111 1   
   107  104  105 2   
   108  104  114 1   
   109  106  107 1   
   110  106  112 1   
   111  106  113 1   
   112  107  108 1   
   113  107  109 1   
   114  114  115 1   
   115  114  125 1   
   116  115  116 1   
   117  115  118 1   
   118  115  126 1   
   119  116  117 2   
   120  116  134 1   
   121  118  119 1   
   122  118  127 1   
   123  118  128 1   
   124  119  120 ar  
   125  119  121 ar  
   126  120  122 ar  
   127  120  129 1   
   128  121  123 ar  
   129  121  130 1   
   130  122  124 ar  
   131  122  131 1   
   132  123  124 ar  
   133  123  132 1   
   134  124  133 1   
   135  134  135 1   
   136  134  140 1   
   137  135  136 1   
   138  135  138 1   
   139  135  141 1   
   140  136  137 2   
   141  136  148 1   
   142  138  139 1   
   143  138  142 1   
   144  138  143 1   
   145  139  140 1   
   146  139  144 1   
   147  139  145 1   
   148  140  146 1   
   149  140  147 1   
   150  148  149 1   
   151  148  157 1   
   152  149  150 1   
   153  149  152 1   
   154  149  158 1   
   155  150  151 2   
   156  150  163 1   
   157  152  153 1   
   158  152  159 1   
   159  152  160 1   
   160  153  154 1   
   161  153  161 1   
   162  153  162 1   
   163  154  155 1   
   164  154  156 1   
   165  163  164 1   
   166  163  168 1   
   167  164  165 1   
   168  164  166 1   
   169  164  167 1   
   170  170  171 1   
   171  170  172 1   
   172  173  174 1   
   173  173  175 1   
@<TRIPOS>SUBSTRUCTURE
     1 MOL         1 TEMP              0 ****  ****    0 ROOT
