@<TRIPOS>MOLECULE
MOL
  175   173     1     0     0
SMALL
resp


@<TRIPOS>ATOM
      1 C1          0.5890    3.8810    5.2980 c3        1 MOL     -0.299207
      2 C2         -0.1480    3.7420    4.0380 c         1 MOL      0.707271
      3 O1          0.3970    4.0920    2.9970 o         1 MOL     -0.558414
      4 H1          0.3670    4.8510    5.7430 hc        1 MOL      0.070707
      5 H2          0.2870    3.0890    5.9840 hc        1 MOL      0.070707
      6 H3          1.6590    3.8060    5.1040 hc        1 MOL      0.070707
      7 N1         -1.4110    3.4360    3.9970 n         1 MOL     -0.649077
      8 C3         -2.1500    3.4170    2.7500 c3        1 MOL      0.213765
      9 C4         -2.1110    4.6750    1.8440 c         1 MOL      0.693543
     10 O2         -2.4330    5.7640    2.2800 o         1 MOL     -0.612952
     11 C5         -3.5790    2.9770    2.8810 c3        1 MOL     -0.274274
     12 C6         -4.2480    2.6390    1.5590 c         1 MOL      0.730583
     13 O3         -5.3700    3.0410    1.3750 o         1 MOL     -0.647936
     14 O4         -3.5590    1.9360    0.8040 o         1 MOL     -0.647936
     15 H4         -1.8940    3.1990    4.8540 hn        1 MOL      0.321532
     16 H5         -1.7080    2.5920    2.1930 h1        1 MOL     -0.033417
     17 H6         -4.0630    3.8120    3.3790 hc        1 MOL      0.027328
     18 H7         -3.5800    2.1340    3.5790 hc        1 MOL      0.027328
     19 N2         -1.8470    4.5090    0.5730 n         1 MOL     -0.523628
     20 C7         -2.1530    5.5210   -0.4820 c3        1 MOL      0.153454
     21 C8         -2.9220    5.0560   -1.7730 c         1 MOL      0.500859
     22 O5         -2.7840    5.6600   -2.8350 o         1 MOL     -0.546664
     23 C9         -0.7860    6.0340   -0.9870 c3        1 MOL     -0.201187
     24 H8         -1.5470    3.6080    0.2200 hn        1 MOL      0.345797
     25 H9         -2.6390    6.3520    0.0300 h1        1 MOL      0.036603
     26 H10        -0.8620    6.8990   -1.6400 hc        1 MOL      0.048335
     27 H11        -0.1490    6.3600   -0.1730 hc        1 MOL      0.048335
     28 H12        -0.2830    5.2570   -1.5700 hc        1 MOL      0.048335
     29 N3         -3.7760    4.0100   -1.6910 n         1 MOL     -0.415531
     30 C10        -4.6030    3.5770   -2.7710 c3        1 MOL      0.118761
     31 C11        -5.9930    2.9190   -2.4500 c         1 MOL      0.529311
     32 O6         -6.9120    3.0490   -3.2380 o         1 MOL     -0.580063
     33 C12        -3.6980    2.6360   -3.5650 c3        1 MOL     -0.180989
     34 C13        -3.1450    1.4210   -2.7590 c         1 MOL      0.774848
     35 O7         -4.0220    0.7820   -2.1080 o         1 MOL     -0.721586
     36 O8         -1.9620    1.1140   -2.6830 o         1 MOL     -0.721586
     37 H13        -3.7250    3.4870   -0.8280 hn        1 MOL      0.187029
     38 H14        -4.8660    4.4090   -3.4170 h1        1 MOL      0.058863
     39 H15        -2.8870    3.1880   -4.0470 hc        1 MOL      0.035432
     40 H16        -4.4010    2.2310   -4.2960 hc        1 MOL      0.035432
     41 N4         -6.3000    2.4160   -1.2160 n         1 MOL     -0.280678
     42 C14        -7.5320    1.6530   -0.8780 c3        1 MOL     -0.052771
     43 C15        -7.5340    0.0940   -1.0910 c         1 MOL      0.477119
     44 O9         -8.5140   -0.6330   -0.8870 o         1 MOL     -0.628814
     45 H17        -5.6610    2.5420   -0.4460 hn        1 MOL      0.157803
     46 H18        -8.4350    2.1230   -1.2780 h1        1 MOL      0.075324
     47 H19        -7.7130    1.7010    0.1940 h1        1 MOL      0.075324
     48 N5         -6.4470   -0.4770   -1.6460 n         1 MOL     -0.247748
     49 C16        -6.4820   -1.8150   -2.2480 c3        1 MOL      0.215049
     50 C17        -6.5030   -3.0340   -1.2400 c         1 MOL      0.429573
     51 O10        -6.6870   -4.1600   -1.6570 o         1 MOL     -0.536302
     52 C18        -5.4390   -1.9760   -3.2840 c3        1 MOL     -0.404781
     53 C19        -4.0270   -2.3280   -2.7170 c         1 MOL      0.762538
     54 N6         -3.1500   -2.8660   -3.5060 n         1 MOL     -0.669831
     55 O11        -3.7540   -2.0310   -1.5550 o         1 MOL     -0.728386
     56 H20        -5.6310    0.0900   -1.8200 hn        1 MOL      0.159834
     57 H21        -7.4250   -1.9370   -2.7870 h1        1 MOL      0.065251
     58 H22        -5.3060   -1.0310   -3.8100 hc        1 MOL      0.088075
     59 H23        -5.5940   -2.8390   -3.9320 hc        1 MOL      0.088075
     60 H24        -3.5680   -3.2580   -4.3380 hn        1 MOL      0.331726
     61 H25        -2.3260   -3.3240   -3.1310 hn        1 MOL      0.331726
     62 N7         -6.4870   -2.7190    0.0720 n         1 MOL     -0.260153
     63 C20        -6.5040   -3.5980    1.2830 c3        1 MOL     -0.111493
     64 C21        -5.2160   -4.0780    1.8110 c         1 MOL      0.444412
     65 O12        -5.2740   -4.7370    2.8690 o         1 MOL     -0.578914
     66 H26        -6.3250   -1.7480    0.2940 hn        1 MOL      0.254967
     67 H27        -7.1330   -4.4860    1.1620 h1        1 MOL      0.094905
     68 H28        -7.0160   -2.9750    2.0120 h1        1 MOL      0.094905
     69 N8         -4.0690   -3.7730    1.2140 n         1 MOL     -0.132756
     70 C22        -2.7130   -4.4890    1.4700 c3        1 MOL     -0.188561
     71 C23        -1.5790   -3.4480    1.4510 c         1 MOL      0.512657
     72 O13        -1.6800   -2.4170    0.8150 o         1 MOL     -0.493301
     73 C24        -2.5830   -5.7100    0.5090 c3        1 MOL      0.439700
     74 C25        -3.7510   -6.7860    0.6780 c3        1 MOL     -0.526448
     75 O14        -2.7990   -5.2920   -0.8170 oh        1 MOL     -0.568099
     76 H29        -3.9760   -2.9820    0.5880 hn        1 MOL      0.196429
     77 H30        -2.8060   -4.9310    2.4570 h1        1 MOL      0.082552
     78 H31        -1.6510   -6.2580    0.5920 h1        1 MOL     -0.019773
     79 H32        -1.9810   -4.8340   -0.9940 ho        1 MOL      0.367025
     80 H33        -3.7620   -7.1200    1.7100 hc        1 MOL      0.142070
     81 H34        -4.7490   -6.4100    0.4440 hc        1 MOL      0.142070
     82 H35        -3.5580   -7.5870   -0.0370 hc        1 MOL      0.142070
     83 N9         -0.3900   -3.8320    1.9620 n         1 MOL     -0.469566
     84 C26         0.7820   -2.9300    2.0080 c3        1 MOL      0.078206
     85 C27         1.6710   -3.1510    0.7220 c         1 MOL      0.523719
     86 O15         1.8690   -4.3980    0.4220 o         1 MOL     -0.600249
     87 C28         1.5780   -3.0510    3.3810 c3        1 MOL      0.061902
     88 C29         1.0690   -1.9310    4.3300 c3        1 MOL      0.020047
     89 C30         3.1180   -2.8560    3.1940 c3        1 MOL     -0.276646
     90 C31         1.6260   -2.0120    5.7640 c3        1 MOL      0.061436
     91 H36        -0.3320   -4.7270    2.4280 hn        1 MOL      0.269306
     92 H37         0.5120   -1.8780    1.8760 h1        1 MOL      0.163647
     93 H38         1.3420   -3.9690    3.9080 hc        1 MOL      0.023047
     94 H39        -0.0000   -2.1290    4.2990 hc        1 MOL     -0.035304
     95 H40         1.1670   -0.8730    4.0560 hc        1 MOL     -0.035304
     96 H41         3.6550   -3.0880    4.1170 hc        1 MOL      0.049698
     97 H42         3.4900   -3.3950    2.3320 hc        1 MOL      0.049698
     98 H43         3.2740   -1.7770    3.1080 hc        1 MOL      0.049698
     99 H44         1.5250   -3.0040    6.2200 hc        1 MOL     -0.020922
    100 H45         2.6680   -1.7460    5.8950 hc        1 MOL     -0.020922
    101 H46         1.0630   -1.3420    6.4080 hc        1 MOL     -0.020922
    102 N10         2.0800   -2.1000   -0.0050 n         1 MOL     -0.130517
    103 C32         2.8420   -2.2240   -1.2420 c3        1 MOL     -0.047768
    104 C33         4.2490   -1.5220   -1.0760 c         1 MOL      0.485105
    105 O16         4.3680   -0.7580   -0.1780 o         1 MOL     -0.344901
    106 C34         2.0610   -1.3890   -2.2200 c3        1 MOL     -0.209442
    107 C35         0.6090   -1.7800   -2.2540 c         1 MOL      0.739331
    108 O17        -0.2020   -1.3350   -1.3550 o         1 MOL     -0.682266
    109 O18         0.2070   -2.3680   -3.2600 o         1 MOL     -0.682266
    110 H47         1.8390   -1.1320    0.1880 hn        1 MOL     -0.026557
    111 H48         2.8370   -3.3000   -1.4470 h1        1 MOL      0.070583
    112 H49         2.4950   -1.3520   -3.2200 hc        1 MOL      0.070138
    113 H50         2.2300   -0.3460   -1.9690 hc        1 MOL      0.070138
    114 N11         5.2720   -1.7540   -1.9270 n         1 MOL     -0.736470
    115 C36         6.6720   -1.3980   -1.5380 c3        1 MOL      0.534044
    116 C37         6.9320    0.0660   -1.0610 c         1 MOL      0.393326
    117 O19         7.4890    0.1410   -0.0090 o         1 MOL     -0.506992
    118 C38         7.5720   -1.8080   -2.6350 c3        1 MOL     -0.308464
    119 C39         9.0730   -1.6390   -2.3080 ca        1 MOL      0.123449
    120 C40         9.5960   -2.2470   -1.1640 ca        1 MOL     -0.172061
    121 C41         9.9130   -0.9160   -3.1590 ca        1 MOL     -0.172061
    122 C42        10.9330   -2.1350   -0.8280 ca        1 MOL     -0.098288
    123 C43        11.2620   -0.7880   -2.9060 ca        1 MOL     -0.098288
    124 C44        11.8050   -1.4260   -1.7320 ca        1 MOL     -0.132134
    125 H51         4.9820   -2.3600   -2.6870 hn        1 MOL      0.350479
    126 H52         6.9100   -2.0150   -0.6680 h1        1 MOL      0.015803
    127 H53         7.3150   -1.1800   -3.4960 hc        1 MOL      0.077738
    128 H54         7.3420   -2.8350   -2.9230 hc        1 MOL      0.077738
    129 H55         8.9560   -2.7250   -0.4340 ha        1 MOL      0.110923
    130 H56         9.4910   -0.4290   -4.0290 ha        1 MOL      0.110923
    131 H57        11.2970   -2.6500    0.0360 ha        1 MOL      0.115434
    132 H58        11.8880   -0.1680   -3.5370 ha        1 MOL      0.115434
    133 H59        12.8810   -1.4580   -1.6580 ha        1 MOL      0.096098
    134 N12         6.4210    1.1080   -1.7000 n         1 MOL     -0.219011
    135 C45         6.5230    2.5000   -1.2260 c3        1 MOL      0.064531
    136 C46         5.8580    2.6680    0.1570 c         1 MOL      0.364413
    137 O20         6.3390    3.4250    1.0040 o         1 MOL     -0.514383
    138 C47         5.9610    3.3710   -2.3400 c3        1 MOL      0.064408
    139 C48         5.6770    2.4590   -3.4630 c3        1 MOL      0.099084
    140 C49         5.6130    1.0410   -2.8930 c3        1 MOL     -0.145223
    141 H60         7.5460    2.8350   -1.0250 h1        1 MOL      0.047824
    142 H61         5.0540    3.8220   -1.9480 hc        1 MOL     -0.001547
    143 H62         6.6250    4.2110   -2.5340 hc        1 MOL     -0.001547
    144 H63         4.8960    2.7740   -4.1500 hc        1 MOL     -0.011892
    145 H64         6.5960    2.5270   -4.0560 hc        1 MOL     -0.011892
    146 H65         4.5930    0.7910   -2.6180 h1        1 MOL      0.079827
    147 H66         5.9010    0.2880   -3.6320 h1        1 MOL      0.079827
    148 N13         4.7600    1.9680    0.4200 n         1 MOL     -0.204839
    149 C50         4.0110    1.8960    1.7260 c3        1 MOL     -0.003269
    150 C51         4.8460    1.1630    2.8040 c         1 MOL      0.401072
    151 O21         5.0130    1.7230    3.8590 o         1 MOL     -0.571367
    152 C52         2.5720    1.2320    1.6200 c3        1 MOL     -0.088198
    153 C53         1.7390    2.0080    0.6290 c3        1 MOL     -0.164557
    154 C54         0.3050    1.4870    0.5140 c         1 MOL      0.678239
    155 O22         0.0060    0.2870    0.7900 o         1 MOL     -0.646719
    156 O23        -0.6220    2.1770   -0.0370 o         1 MOL     -0.646719
    157 H67         4.5990    1.1800   -0.1920 hn        1 MOL      0.188028
    158 H68         3.8490    2.8920    2.1390 h1        1 MOL      0.117597
    159 H69         2.1560    1.2050    2.6310 hc        1 MOL      0.046249
    160 H70         2.6030    0.2090    1.2490 hc        1 MOL      0.046249
    161 H71         2.1680    1.9060   -0.3750 hc        1 MOL      0.053269
    162 H72         1.6500    3.0590    0.9230 hc        1 MOL      0.053269
    163 N14         5.5050    0.0840    2.5350 n         1 MOL      0.066836
    164 C55         6.5080   -0.6300    3.4540 c3        1 MOL     -0.231802
    165 H73         6.3880   -0.2650    4.4740 h1        1 MOL      0.090936
    166 H74         6.3230   -1.7050    3.4290 h1        1 MOL      0.090936
    167 H75         7.5230   -0.4270    3.1130 h1        1 MOL      0.090936
    168 H76         5.4740   -0.2410    1.5740 hn        1 MOL      0.028695
    169 Ca1        -2.2070   -0.1280   -0.2730 Ca        1 MOL      1.745128
    170 O24        -1.7070   -0.0090    2.6420 oh        1 MOL     -0.874148
    171 H77        -0.8250    0.0360    2.2450 ho        1 MOL      0.413085
    172 H78        -1.6020    0.4190    3.4980 ho        1 MOL      0.413085
    173 O25        -4.0580   -0.6220    1.7840 oh        1 MOL     -0.874148
    174 H79        -4.8540   -0.5540    2.3300 ho        1 MOL      0.413085
    175 H80        -3.3600   -0.2920    2.3520 ho        1 MOL      0.413085
@<TRIPOS>BOND
     1    1    2 1   
     2    1    4 1   
     3    1    5 1   
     4    1    6 1   
     5    2    3 2   
     6    2    7 1   
     7    7    8 1   
     8    7   15 1   
     9    8    9 1   
    10    8   11 1   
    11    8   16 1   
    12    9   10 2   
    13    9   19 1   
    14   11   12 1   
    15   11   17 1   
    16   11   18 1   
    17   12   13 1   
    18   12   14 1   
    19   19   20 1   
    20   19   24 1   
    21   20   21 1   
    22   20   23 1   
    23   20   25 1   
    24   21   22 2   
    25   21   29 1   
    26   23   26 1   
    27   23   27 1   
    28   23   28 1   
    29   29   30 1   
    30   29   37 1   
    31   30   31 1   
    32   30   33 1   
    33   30   38 1   
    34   31   32 2   
    35   31   41 1   
    36   33   34 1   
    37   33   39 1   
    38   33   40 1   
    39   34   35 1   
    40   34   36 1   
    41   41   42 1   
    42   41   45 1   
    43   42   43 1   
    44   42   46 1   
    45   42   47 1   
    46   43   44 2   
    47   43   48 1   
    48   48   49 1   
    49   48   56 1   
    50   49   50 1   
    51   49   52 1   
    52   49   57 1   
    53   50   51 2   
    54   50   62 1   
    55   52   53 1   
    56   52   58 1   
    57   52   59 1   
    58   53   54 1   
    59   53   55 2   
    60   54   60 1   
    61   54   61 1   
    62   62   63 1   
    63   62   66 1   
    64   63   64 1   
    65   63   67 1   
    66   63   68 1   
    67   64   65 2   
    68   64   69 1   
    69   69   70 1   
    70   69   76 1   
    71   70   71 1   
    72   70   73 1   
    73   70   77 1   
    74   71   72 2   
    75   71   83 1   
    76   73   74 1   
    77   73   75 1   
    78   73   78 1   
    79   74   80 1   
    80   74   81 1   
    81   74   82 1   
    82   75   79 1   
    83   83   84 1   
    84   83   91 1   
    85   84   85 1   
    86   84   87 1   
    87   84   92 1   
    88   85   86 2   
    89   85  102 1   
    90   87   88 1   
    91   87   89 1   
    92   87   93 1   
    93   88   90 1   
    94   88   94 1   
    95   88   95 1   
    96   89   96 1   
    97   89   97 1   
    98   89   98 1   
    99   90   99 1   
   100   90  100 1   
   101   90  101 1   
   102  102  103 1   
   103  102  110 1   
   104  103  104 1   
   105  103  106 1   
   106  103  111 1   
   107  104  105 2   
   108  104  114 1   
   109  106  107 1   
   110  106  112 1   
   111  106  113 1   
   112  107  108 1   
   113  107  109 1   
   114  114  115 1   
   115  114  125 1   
   116  115  116 1   
   117  115  118 1   
   118  115  126 1   
   119  116  117 2   
   120  116  134 1   
   121  118  119 1   
   122  118  127 1   
   123  118  128 1   
   124  119  120 ar  
   125  119  121 ar  
   126  120  122 ar  
   127  120  129 1   
   128  121  123 ar  
   129  121  130 1   
   130  122  124 ar  
   131  122  131 1   
   132  123  124 ar  
   133  123  132 1   
   134  124  133 1   
   135  134  135 1   
   136  134  140 1   
   137  135  136 1   
   138  135  138 1   
   139  135  141 1   
   140  136  137 2   
   141  136  148 1   
   142  138  139 1   
   143  138  142 1   
   144  138  143 1   
   145  139  140 1   
   146  139  144 1   
   147  139  145 1   
   148  140  146 1   
   149  140  147 1   
   150  148  149 1   
   151  148  157 1   
   152  149  150 1   
   153  149  152 1   
   154  149  158 1   
   155  150  151 2   
   156  150  163 1   
   157  152  153 1   
   158  152  159 1   
   159  152  160 1   
   160  153  154 1   
   161  153  161 1   
   162  153  162 1   
   163  154  155 1   
   164  154  156 1   
   165  163  164 1   
   166  163  168 1   
   167  164  165 1   
   168  164  166 1   
   169  164  167 1   
   170  170  171 1   
   171  170  172 1   
   172  173  174 1   
   173  173  175 1   
@<TRIPOS>SUBSTRUCTURE
     1 MOL         1 TEMP              0 ****  ****    0 ROOT
