@<TRIPOS>MOLECULE
MOL
  178   175     1     0     0
SMALL
resp


@<TRIPOS>ATOM
      1 C1          0.2810    2.9430    5.8560 c3        1 MOL     -0.371431
      2 C2         -0.3020    2.9660    4.4050 c         1 MOL      0.709087
      3 O1          0.2540    3.6510    3.4960 o         1 MOL     -0.574666
      4 H1          1.0190    3.7380    5.9630 hc        1 MOL      0.094227
      5 H2         -0.5240    3.0970    6.5740 hc        1 MOL      0.094227
      6 H3          0.7560    1.9810    6.0430 hc        1 MOL      0.094227
      7 N1         -1.4110    2.2110    4.1880 n         1 MOL     -0.620589
      8 C3         -2.1110    2.0730    2.8730 c3        1 MOL      0.176789
      9 C4         -2.5940    3.4100    2.2710 c         1 MOL      0.554005
     10 O2         -3.5150    4.0100    2.8260 o         1 MOL     -0.585736
     11 C5         -3.2230    0.9980    3.0510 c3        1 MOL     -0.049194
     12 C6         -3.7910    0.4470    1.7540 c         1 MOL      0.622824
     13 O3         -4.8480   -0.2780    1.7640 o         1 MOL     -0.669299
     14 O4         -3.3830    0.8580    0.5830 o         1 MOL     -0.669299
     15 H4         -1.7370    1.6040    4.9240 hn        1 MOL      0.308231
     16 H5         -1.4200    1.6700    2.1390 h1        1 MOL     -0.001812
     17 H6         -4.0740    1.3440    3.6430 hc        1 MOL      0.030607
     18 H7         -2.8430    0.1630    3.6250 hc        1 MOL      0.030607
     19 N2         -2.0840    3.7880    1.0750 n         1 MOL     -0.365857
     20 C7         -2.1820    5.1900    0.6410 c3        1 MOL      0.251661
     21 C8         -3.3870    5.3590   -0.2710 c         1 MOL      0.346265
     22 O5         -4.0950    6.4130   -0.2550 o         1 MOL     -0.571478
     23 C9         -0.8920    5.6840   -0.0710 c3        1 MOL     -0.376418
     24 H8         -1.5190    3.1570    0.5250 hn        1 MOL      0.266289
     25 H9         -2.3780    5.8930    1.4450 h1        1 MOL      0.047382
     26 H10        -0.1170    5.8920    0.6670 hc        1 MOL      0.097532
     27 H11        -0.6320    5.0150   -0.8910 hc        1 MOL      0.097532
     28 H12        -1.1310    6.6530   -0.5240 hc        1 MOL      0.097532
     29 N3         -3.7540    4.3350   -1.1020 n         1 MOL     -0.195197
     30 C10        -5.0090    4.2350   -1.8170 c3        1 MOL      0.112206
     31 C11        -6.1010    3.4390   -1.0840 c         1 MOL      0.339173
     32 O6         -7.2260    3.5230   -1.5330 o         1 MOL     -0.520401
     33 C12        -4.7770    3.5600   -3.2040 c3        1 MOL     -0.465408
     34 C13        -3.8600    2.3500   -3.2910 c         1 MOL      0.927695
     35 O7         -3.6910    1.8880   -4.4610 o         1 MOL     -0.745553
     36 O8         -3.2900    1.8020   -2.3240 o         1 MOL     -0.745553
     37 H13        -3.3100    3.4460   -0.8980 hn        1 MOL      0.119164
     38 H14        -5.4060    5.2380   -1.9820 h1        1 MOL      0.098846
     39 H15        -4.3900    4.3600   -3.8390 hc        1 MOL      0.109256
     40 H16        -5.7400    3.2880   -3.6400 hc        1 MOL      0.109256
     41 N4         -5.8510    2.7160   -0.0050 n         1 MOL     -0.008675
     42 C14        -6.8760    2.1110    0.8210 c3        1 MOL     -0.241963
     43 C15        -7.4720    0.9140    0.1290 c         1 MOL      0.528918
     44 O9         -8.6970    0.8540   -0.1310 o         1 MOL     -0.593980
     45 H17        -4.8850    2.6410    0.2750 hn        1 MOL      0.104659
     46 H18        -7.5830    2.8710    1.1480 h1        1 MOL      0.117897
     47 H19        -6.3310    1.7590    1.6900 h1        1 MOL      0.117897
     48 N5         -6.6810   -0.0480   -0.2850 n         1 MOL     -0.051054
     49 C16        -7.1900   -1.1980   -1.0820 c3        1 MOL      0.009705
     50 C17        -7.3500   -2.4840   -0.1940 c         1 MOL      0.380017
     51 O10        -8.0460   -3.4300   -0.5840 o         1 MOL     -0.545426
     52 C18        -6.3550   -1.4560   -2.3740 c3        1 MOL     -0.072289
     53 C19        -5.1520   -2.3050   -2.0580 c         1 MOL      0.347251
     54 N6         -5.0310   -3.4980   -2.5620 n         1 MOL     -0.652271
     55 O11        -4.3320   -1.8360   -1.2590 o         1 MOL     -0.457175
     56 H20        -5.8010   -0.1920    0.1960 hn        1 MOL     -0.101840
     57 H21        -8.2190   -1.0600   -1.4250 h1        1 MOL      0.090662
     58 H22        -6.0180   -0.5080   -2.7690 hc        1 MOL      0.069407
     59 H23        -6.9730   -1.9110   -3.1500 hc        1 MOL      0.069407
     60 H24        -5.6300   -3.8360   -3.2900 hn        1 MOL      0.342015
     61 H25        -4.2640   -4.0840   -2.2640 hn        1 MOL      0.342015
     62 N7         -6.6220   -2.6030    0.9140 n         1 MOL     -0.224210
     63 C20        -6.3990   -3.7440    1.7260 c3        1 MOL      0.029704
     64 C21        -5.0430   -4.4540    1.6280 c         1 MOL      0.415623
     65 O12        -4.7700   -5.3700    2.3850 o         1 MOL     -0.572999
     66 H26        -6.0850   -1.7890    1.1700 hn        1 MOL      0.254101
     67 H27        -7.1640   -4.5180    1.6540 h1        1 MOL      0.053947
     68 H28        -6.5440   -3.3330    2.7220 h1        1 MOL      0.053947
     69 N8         -4.0960   -3.8750    0.9280 n         1 MOL     -0.126996
     70 C22        -2.6980   -4.2840    0.9710 c3        1 MOL      0.018511
     71 C23        -1.7400   -3.1250    1.1130 c         1 MOL      0.361171
     72 O13        -1.9990   -1.9940    0.7390 o         1 MOL     -0.522474
     73 C24        -2.2770   -5.2490   -0.1210 c3        1 MOL      0.251192
     74 C25        -3.1270   -6.4730   -0.1720 c3        1 MOL     -0.369719
     75 O14        -2.3090   -4.7000   -1.4680 oh        1 MOL     -0.582367
     76 H29        -4.3510   -3.1770    0.2500 hn        1 MOL      0.205909
     77 H30        -2.5010   -4.8120    1.9130 h1        1 MOL      0.084428
     78 H31        -1.2280   -5.4950    0.0210 h1        1 MOL      0.052890
     79 H32        -2.3250   -5.4240   -2.1030 ho        1 MOL      0.388599
     80 H33        -2.5440   -7.1930   -0.7470 hc        1 MOL      0.096922
     81 H34        -3.2930   -6.8730    0.8250 hc        1 MOL      0.096922
     82 H35        -3.9920   -6.3400   -0.8120 hc        1 MOL      0.096922
     83 N9         -0.4370   -3.4770    1.3840 n         1 MOL     -0.301433
     84 C26         0.8150   -2.6930    1.5110 c3        1 MOL      0.031204
     85 C27         1.6050   -2.9790    0.2420 c         1 MOL      0.345891
     86 O15         1.9590   -4.1490   -0.0260 o         1 MOL     -0.588572
     87 C28         1.4680   -3.1300    2.8350 c3        1 MOL      0.304901
     88 C29         0.4370   -3.1230    4.0100 c3        1 MOL     -0.120097
     89 C30         2.7010   -2.1940    3.0450 c3        1 MOL     -0.077314
     90 C31         1.0670   -3.2530    5.4360 c3        1 MOL     -0.186587
     91 H36        -0.4100   -4.4790    1.5330 hn        1 MOL      0.190136
     92 H37         0.5230   -1.6410    1.5950 h1        1 MOL      0.073170
     93 H38         1.7930   -4.1720    2.8520 hc        1 MOL     -0.051989
     94 H39        -0.2080   -3.9660    3.7910 hc        1 MOL      0.029647
     95 H40        -0.0710   -2.1510    3.9440 hc        1 MOL      0.029647
     96 H41         3.0950   -2.2460    4.0560 hc        1 MOL     -0.019256
     97 H42         3.4560   -2.6580    2.3980 hc        1 MOL     -0.019256
     98 H43         2.5800   -1.1470    2.7620 hc        1 MOL     -0.019256
     99 H44         0.3440   -3.1540    6.2450 hc        1 MOL      0.050147
    100 H45         1.5750   -4.2120    5.5720 hc        1 MOL      0.050147
    101 H46         1.7380   -2.4120    5.6220 hc        1 MOL      0.050147
    102 N10         1.9960   -1.8850   -0.3690 n         1 MOL      0.021676
    103 C32         2.9330   -1.7500   -1.4380 c3        1 MOL      0.042390
    104 C33         4.3500   -1.3150   -0.8590 c         1 MOL      0.299639
    105 O16         4.4020   -0.7250    0.1730 o         1 MOL     -0.216352
    106 C34         2.3030   -0.8070   -2.4980 c3        1 MOL     -0.324051
    107 C35         2.9170   -0.8120   -3.9260 c         1 MOL      0.638341
    108 O17         4.0690   -1.3290   -4.1260 o         1 MOL     -0.679022
    109 O18         2.2970   -0.2150   -4.8700 o         1 MOL     -0.679022
    110 H47         1.4620   -1.0390   -0.2750 hn        1 MOL      0.080548
    111 H48         3.1060   -2.7430   -1.8490 h1        1 MOL      0.051710
    112 H49         2.3480    0.2050   -2.1050 hc        1 MOL      0.129793
    113 H50         1.2470   -1.0300   -2.6780 hc        1 MOL      0.129793
    114 N11         5.4830   -1.4800   -1.5890 n         1 MOL     -0.481521
    115 C36         6.7880   -1.2400   -0.9420 c3        1 MOL      0.413683
    116 C37         7.1290    0.2420   -0.4940 c         1 MOL      0.252391
    117 O19         7.5780    0.4900    0.6540 o         1 MOL     -0.465369
    118 C38         7.8960   -1.9140   -1.7390 c3        1 MOL     -0.287499
    119 C39         9.3050   -1.7160   -1.2480 ca        1 MOL      0.189650
    120 C40         9.7890   -2.3750   -0.1230 ca        1 MOL     -0.271537
    121 C41        10.1410   -0.7200   -1.8080 ca        1 MOL     -0.271537
    122 C42        11.0670   -2.2090    0.3800 ca        1 MOL      0.023443
    123 C43        11.3230   -0.4040   -1.2270 ca        1 MOL      0.023443
    124 C44        11.8020   -1.1990   -0.1700 ca        1 MOL     -0.238834
    125 H51         5.4030   -1.8360   -2.5290 hn        1 MOL      0.263846
    126 H52         6.6790   -1.7540    0.0140 h1        1 MOL      0.010849
    127 H53         7.8810   -1.5510   -2.7640 hc        1 MOL      0.075972
    128 H54         7.6180   -2.9660   -1.7700 hc        1 MOL      0.075972
    129 H55         9.1950   -3.0800    0.4390 ha        1 MOL      0.136247
    130 H56         9.7860   -0.0820   -2.6040 ha        1 MOL      0.136247
    131 H57        11.4060   -2.8280    1.1960 ha        1 MOL      0.079759
    132 H58        11.9430    0.4060   -1.5860 ha        1 MOL      0.079759
    133 H59        12.7040   -0.8500    0.3220 ha        1 MOL      0.110211
    134 N12         6.8500    1.2860   -1.2840 n         1 MOL     -0.062883
    135 C45         6.7850    2.6720   -0.7450 c3        1 MOL      0.109646
    136 C46         5.8000    2.8580    0.3930 c         1 MOL      0.301401
    137 O20         5.9570    3.6850    1.3100 o         1 MOL     -0.477908
    138 C47         6.4900    3.5480   -2.0020 c3        1 MOL     -0.163985
    139 C48         6.7980    2.6300   -3.2410 c3        1 MOL     -0.343629
    140 C49         6.3510    1.2570   -2.7020 c3        1 MOL     -0.095936
    141 H60         7.7070    2.8930   -0.1990 h1        1 MOL      0.056774
    142 H61         5.4600    3.8560   -2.1840 hc        1 MOL      0.094703
    143 H62         7.1920    4.3740   -1.8780 hc        1 MOL      0.094703
    144 H63         6.0610    2.9520   -3.9860 hc        1 MOL      0.128164
    145 H64         7.8200    2.5420   -3.5870 hc        1 MOL      0.128164
    146 H65         5.2750    1.1850   -2.8220 h1        1 MOL      0.127148
    147 H66         6.9160    0.4150   -3.1120 h1        1 MOL      0.127148
    148 N13         4.7290    1.9930    0.4420 n         1 MOL     -0.224284
    149 C50         3.8720    2.0900    1.6180 c3        1 MOL     -0.102304
    150 C51         4.5350    1.5070    2.8740 c         1 MOL      0.488503
    151 O21         4.3910    1.9750    3.9810 o         1 MOL     -0.572168
    152 C52         2.4420    1.5720    1.3490 c3        1 MOL      0.250472
    153 C53         1.7550    2.0850    0.0720 c3        1 MOL     -0.333246
    154 C54         0.3680    1.4540   -0.2090 c         1 MOL      0.630164
    155 O22         0.1510    0.2430    0.0110 o         1 MOL     -0.644559
    156 O23        -0.5680    2.1080   -0.6450 o         1 MOL     -0.644559
    157 H67         4.4300    1.2890   -0.2160 hn        1 MOL      0.164403
    158 H68         3.7150    3.1170    1.9130 h1        1 MOL      0.098237
    159 H69         1.8620    1.7780    2.2440 hc        1 MOL     -0.022765
    160 H70         2.4050    0.5000    1.1710 hc        1 MOL     -0.022765
    161 H71         2.2960    1.9270   -0.8530 hc        1 MOL      0.082878
    162 H72         1.6390    3.1550    0.2620 hc        1 MOL      0.082878
    163 N14         5.1850    0.3500    2.6230 n         1 MOL      0.038560
    164 C55         6.0430   -0.4750    3.5910 c3        1 MOL     -0.312269
    165 H73         6.6870    0.1920    4.1640 h1        1 MOL      0.103981
    166 H74         5.3950   -1.0270    4.2720 h1        1 MOL      0.103981
    167 H75         6.6570   -1.1760    3.0260 h1        1 MOL      0.103981
    168 H76         5.2820    0.0890    1.6470 hn        1 MOL     -0.041601
    169 Ca1        -2.0930   -0.2110   -1.3430 Ca        1 MOL      1.738231
    170 O24        -0.5630    0.6130   -3.4350 oh        1 MOL     -0.857661
    171 H77         0.3440    0.3780   -3.6620 ho        1 MOL      0.399650
    172 H78        -0.6420    1.5240   -3.7100 ho        1 MOL      0.399650
    173 O25        -0.9000   -2.5050   -2.2730 oh        1 MOL     -0.857661
    174 H79        -0.6410   -2.6310   -3.1770 ho        1 MOL      0.399650
    175 H80        -1.2340   -3.3520   -1.9920 ho        1 MOL      0.399650
    176 O26        -3.1750   -0.6320   -3.8260 oh        1 MOL     -0.857661
    177 H81        -3.2080    0.2310   -4.2500 ho        1 MOL      0.399650
    178 H82        -3.3960   -1.2460   -4.5260 ho        1 MOL      0.399650
@<TRIPOS>BOND
     1    1    2 1   
     2    1    4 1   
     3    1    5 1   
     4    1    6 1   
     5    2    3 2   
     6    2    7 1   
     7    7    8 1   
     8    7   15 1   
     9    8    9 1   
    10    8   11 1   
    11    8   16 1   
    12    9   10 2   
    13    9   19 1   
    14   11   12 1   
    15   11   17 1   
    16   11   18 1   
    17   12   13 1   
    18   12   14 1   
    19   19   20 1   
    20   19   24 1   
    21   20   21 1   
    22   20   23 1   
    23   20   25 1   
    24   21   22 2   
    25   21   29 1   
    26   23   26 1   
    27   23   27 1   
    28   23   28 1   
    29   29   30 1   
    30   29   37 1   
    31   30   31 1   
    32   30   33 1   
    33   30   38 1   
    34   31   32 2   
    35   31   41 1   
    36   33   34 1   
    37   33   39 1   
    38   33   40 1   
    39   34   35 1   
    40   34   36 1   
    41   41   42 1   
    42   41   45 1   
    43   42   43 1   
    44   42   46 1   
    45   42   47 1   
    46   43   44 2   
    47   43   48 1   
    48   48   49 1   
    49   48   56 1   
    50   49   50 1   
    51   49   52 1   
    52   49   57 1   
    53   50   51 2   
    54   50   62 1   
    55   52   53 1   
    56   52   58 1   
    57   52   59 1   
    58   53   54 1   
    59   53   55 2   
    60   54   60 1   
    61   54   61 1   
    62   62   63 1   
    63   62   66 1   
    64   63   64 1   
    65   63   67 1   
    66   63   68 1   
    67   64   65 2   
    68   64   69 1   
    69   69   70 1   
    70   69   76 1   
    71   70   71 1   
    72   70   73 1   
    73   70   77 1   
    74   71   72 2   
    75   71   83 1   
    76   73   74 1   
    77   73   75 1   
    78   73   78 1   
    79   74   80 1   
    80   74   81 1   
    81   74   82 1   
    82   75   79 1   
    83   83   84 1   
    84   83   91 1   
    85   84   85 1   
    86   84   87 1   
    87   84   92 1   
    88   85   86 2   
    89   85  102 1   
    90   87   88 1   
    91   87   89 1   
    92   87   93 1   
    93   88   90 1   
    94   88   94 1   
    95   88   95 1   
    96   89   96 1   
    97   89   97 1   
    98   89   98 1   
    99   90   99 1   
   100   90  100 1   
   101   90  101 1   
   102  102  103 1   
   103  102  110 1   
   104  103  104 1   
   105  103  106 1   
   106  103  111 1   
   107  104  105 2   
   108  104  114 1   
   109  106  107 1   
   110  106  112 1   
   111  106  113 1   
   112  107  108 1   
   113  107  109 1   
   114  114  115 1   
   115  114  125 1   
   116  115  116 1   
   117  115  118 1   
   118  115  126 1   
   119  116  117 2   
   120  116  134 1   
   121  118  119 1   
   122  118  127 1   
   123  118  128 1   
   124  119  120 ar  
   125  119  121 ar  
   126  120  122 ar  
   127  120  129 1   
   128  121  123 ar  
   129  121  130 1   
   130  122  124 ar  
   131  122  131 1   
   132  123  124 ar  
   133  123  132 1   
   134  124  133 1   
   135  134  135 1   
   136  134  140 1   
   137  135  136 1   
   138  135  138 1   
   139  135  141 1   
   140  136  137 2   
   141  136  148 1   
   142  138  139 1   
   143  138  142 1   
   144  138  143 1   
   145  139  140 1   
   146  139  144 1   
   147  139  145 1   
   148  140  146 1   
   149  140  147 1   
   150  148  149 1   
   151  148  157 1   
   152  149  150 1   
   153  149  152 1   
   154  149  158 1   
   155  150  151 2   
   156  150  163 1   
   157  152  153 1   
   158  152  159 1   
   159  152  160 1   
   160  153  154 1   
   161  153  161 1   
   162  153  162 1   
   163  154  155 1   
   164  154  156 1   
   165  163  164 1   
   166  163  168 1   
   167  164  165 1   
   168  164  166 1   
   169  164  167 1   
   170  170  171 1   
   171  170  172 1   
   172  173  174 1   
   173  173  175 1   
   174  176  177 1   
   175  176  178 1   
@<TRIPOS>SUBSTRUCTURE
     1 MOL         1 TEMP              0 ****  ****    0 ROOT
