@<TRIPOS>MOLECULE
MOL
  181   177     1     0     0
SMALL
resp


@<TRIPOS>ATOM
      1 C1          0.0070   -3.1450    5.6010 c3        1 MOL     -0.245768
      2 C2          0.4540   -2.9310    4.1650 c         1 MOL      0.791203
      3 O1         -0.1430   -3.5230    3.2580 o         1 MOL     -0.613279
      4 H1         -0.5670   -4.0690    5.6670 hc        1 MOL      0.053718
      5 H2          0.8820   -3.2140    6.2480 hc        1 MOL      0.053718
      6 H3         -0.6140   -2.3070    5.9170 hc        1 MOL      0.053718
      7 N1          1.5610   -2.2390    3.8900 n         1 MOL     -0.659182
      8 C3          2.1070   -2.0550    2.5210 c3        1 MOL      0.018492
      9 C4          2.6420   -3.4250    1.9200 c         1 MOL      0.680701
     10 O2          3.5770   -4.0600    2.4620 o         1 MOL     -0.613214
     11 C5          3.1790   -0.9240    2.5460 c3        1 MOL     -0.350529
     12 C6          3.6070   -0.5460    1.0890 c         1 MOL      0.832375
     13 O3          4.4730    0.3690    0.9220 o         1 MOL     -0.686195
     14 O4          3.1790   -1.1820    0.1400 o         1 MOL     -0.686195
     15 H4          2.1330   -1.8820    4.6450 hn        1 MOL      0.319379
     16 H5          1.2530   -1.7420    1.9140 h1        1 MOL      0.129968
     17 H6          4.0980   -1.2520    3.0360 hc        1 MOL      0.111953
     18 H7          2.7480   -0.0340    3.0150 hc        1 MOL      0.111953
     19 N2          2.0180   -3.8760    0.8420 n         1 MOL     -0.438350
     20 C7          2.4430   -5.0760    0.1170 c3        1 MOL      0.055091
     21 C8          3.7080   -4.9880   -0.7160 c         1 MOL      0.355573
     22 O5          4.2920   -6.0140   -1.1370 o         1 MOL     -0.575658
     23 C9          1.2700   -5.5730   -0.7750 c3        1 MOL     -0.023766
     24 H8          1.2360   -3.3920    0.4350 hn        1 MOL      0.317582
     25 H9          2.6040   -5.9530    0.7380 h1        1 MOL      0.060516
     26 H10         1.3940   -6.6260   -1.0630 hc        1 MOL      0.023635
     27 H11         0.2460   -5.5280   -0.4000 hc        1 MOL      0.023635
     28 H12         1.2780   -5.0000   -1.7000 hc        1 MOL      0.023635
     29 N3          4.2370   -3.8240   -0.9410 n         1 MOL      0.007550
     30 C10         5.4060   -3.5830   -1.7600 c3        1 MOL     -0.046602
     31 C11         6.5960   -3.1200   -0.9500 c         1 MOL      0.360068
     32 O6          7.7180   -2.9590   -1.4470 o         1 MOL     -0.543165
     33 C12         5.0850   -2.5680   -2.8550 c3        1 MOL      0.092315
     34 C13         3.7470   -2.6620   -3.5500 c         1 MOL      0.574005
     35 O7          3.6790   -3.2230   -4.6770 o         1 MOL     -0.671014
     36 O8          2.7880   -2.2320   -2.8610 o         1 MOL     -0.671014
     37 H13         3.6250   -3.0520   -0.7020 hn        1 MOL      0.067229
     38 H14         5.7430   -4.5460   -2.1490 h1        1 MOL      0.098253
     39 H15         5.8810   -2.5940   -3.6000 hc        1 MOL     -0.040189
     40 H16         5.1420   -1.5370   -2.5050 hc        1 MOL     -0.040189
     41 N4          6.3650   -2.7280    0.2890 n         1 MOL     -0.041159
     42 C14         7.3720   -2.2660    1.2370 c3        1 MOL     -0.329630
     43 C15         8.0300   -0.9250    1.0760 c         1 MOL      0.591667
     44 O9          8.8530   -0.5130    1.8460 o         1 MOL     -0.575421
     45 H17         5.4210   -2.8640    0.6370 hn        1 MOL      0.067746
     46 H18         8.2330   -2.9020    1.0540 h1        1 MOL      0.137084
     47 H19         6.9840   -2.3890    2.2550 h1        1 MOL      0.137084
     48 N5          7.4990   -0.0590    0.1730 n         1 MOL     -0.308663
     49 C16         7.8980    1.3090   -0.1020 c3        1 MOL      0.066683
     50 C17         7.3990    2.2750    0.9650 c         1 MOL      0.426553
     51 O10         7.8130    3.4180    1.0470 o         1 MOL     -0.479909
     52 C18         7.4970    1.6590   -1.5660 c3        1 MOL     -0.325314
     53 C19         7.9290    3.0380   -1.8120 c         1 MOL      0.687827
     54 N6          7.1460    4.0370   -1.8050 n         1 MOL     -0.781229
     55 O11         9.1070    3.2700   -1.9750 o         1 MOL     -0.594668
     56 H20         6.6800   -0.4200   -0.2940 hn        1 MOL      0.233474
     57 H21         8.9870    1.3570   -0.0500 h1        1 MOL      0.113144
     58 H22         6.4170    1.6660   -1.7130 hc        1 MOL      0.102740
     59 H23         8.0250    0.9890   -2.2440 hc        1 MOL      0.102740
     60 H24         6.1360    3.9570   -1.8360 hn        1 MOL      0.362654
     61 H25         7.5100    4.9650   -1.9310 hn        1 MOL      0.362654
     62 N7          6.4760    1.9130    1.8880 n         1 MOL     -0.245092
     63 C20         5.8580    2.8700    2.8010 c3        1 MOL     -0.206064
     64 C21         4.8330    3.7990    2.1960 c         1 MOL      0.598106
     65 O12         4.7600    4.9920    2.4750 o         1 MOL     -0.614467
     66 H26         5.9200    1.0620    1.8660 hn        1 MOL      0.188398
     67 H27         6.6240    3.5320    3.2100 h1        1 MOL      0.106205
     68 H28         5.4590    2.2370    3.5990 h1        1 MOL      0.106205
     69 N8          3.9480    3.3590    1.3460 n         1 MOL     -0.371243
     70 C22         2.7580    4.1320    0.8350 c3        1 MOL     -0.057317
     71 C23         1.6850    3.1040    0.5410 c         1 MOL      0.325705
     72 O13         2.0290    1.9310    0.1490 o         1 MOL     -0.459106
     73 C24         3.0930    5.0670   -0.3780 c3        1 MOL      0.380487
     74 C25         2.0160    6.1500   -0.5930 c3        1 MOL     -0.411440
     75 O14         4.2490    5.8610   -0.1970 oh        1 MOL     -0.633484
     76 H29         3.9400    2.3670    1.1700 hn        1 MOL      0.223623
     77 H30         2.5010    4.8130    1.6420 h1        1 MOL      0.108341
     78 H31         3.2920    4.3960   -1.2150 h1        1 MOL      0.002839
     79 H32         4.6290    5.6950    0.6720 ho        1 MOL      0.417048
     80 H33         2.4170    6.8240   -1.3610 hc        1 MOL      0.110083
     81 H34         1.0690    5.6620   -0.8300 hc        1 MOL      0.110083
     82 H35         1.9510    6.7390    0.3180 hc        1 MOL      0.110083
     83 N9          0.3770    3.3730    0.8360 n         1 MOL     -0.300342
     84 C26        -0.6630    2.4310    0.5330 c3        1 MOL     -0.013699
     85 C27        -1.8510    2.8460   -0.3780 c         1 MOL      0.293415
     86 O15        -2.2680    4.0030   -0.4900 o         1 MOL     -0.539136
     87 C28        -1.1540    1.7440    1.8260 c3        1 MOL      0.087741
     88 C29        -1.6120    2.7960    2.8490 c3        1 MOL      0.014682
     89 C30        -0.0760    0.7910    2.3310 c3        1 MOL     -0.662347
     90 C31        -1.9580    2.1950    4.2580 c3        1 MOL     -0.211303
     91 H36         0.1040    4.2830    1.1880 hn        1 MOL      0.248012
     92 H37        -0.1870    1.6240   -0.0260 h1        1 MOL      0.196754
     93 H38        -1.9750    1.1400    1.4510 hc        1 MOL     -0.152294
     94 H39        -2.4650    3.3450    2.4490 hc        1 MOL      0.029760
     95 H40        -0.8040    3.4960    3.0280 hc        1 MOL      0.029760
     96 H41         0.7070    1.4440    2.7110 hc        1 MOL      0.177977
     97 H42        -0.4670    0.3240    3.2380 hc        1 MOL      0.177977
     98 H43         0.2950    0.1430    1.5370 hc        1 MOL      0.177977
     99 H44        -2.5240    2.9150    4.8630 hc        1 MOL      0.054735
    100 H45        -2.5640    1.3260    4.0070 hc        1 MOL      0.054735
    101 H46        -1.0320    1.9040    4.7540 hc        1 MOL      0.054735
    102 N10        -2.5240    1.8770   -0.9670 n         1 MOL     -0.073067
    103 C32        -3.7810    2.0090   -1.6890 c3        1 MOL      0.005567
    104 C33        -5.0690    1.9060   -0.7670 c         1 MOL      0.498276
    105 O16        -4.9450    1.6690    0.4200 o         1 MOL     -0.444119
    106 C34        -3.7850    1.0310   -2.9010 c3        1 MOL     -0.100430
    107 C35        -2.5180    1.0680   -3.7650 c         1 MOL      0.695879
    108 O17        -2.0760    0.0620   -4.3760 o         1 MOL     -0.687026
    109 O18        -2.1530    2.2410   -4.0580 o         1 MOL     -0.687026
    110 H47        -2.1770    0.9630   -0.7030 hn        1 MOL      0.307994
    111 H48        -3.7580    3.0120   -2.1150 h1        1 MOL      0.045711
    112 H49        -4.6160    1.3580   -3.5190 hc        1 MOL     -0.003644
    113 H50        -4.0010    0.0380   -2.4980 hc        1 MOL     -0.003644
    114 N11        -6.2450    1.8620   -1.3520 n         1 MOL     -0.595841
    115 C36        -7.4800    1.5030   -0.6290 c3        1 MOL      0.360516
    116 C37        -7.7050    0.0250   -0.1300 c         1 MOL      0.324718
    117 O19        -7.9410   -0.1860    1.0440 o         1 MOL     -0.498824
    118 C38        -8.6850    1.9760   -1.4030 c3        1 MOL     -0.148486
    119 C39       -10.0990    1.6880   -0.8870 ca        1 MOL      0.149461
    120 C40       -10.7260    2.5340    0.0570 ca        1 MOL     -0.232205
    121 C41       -10.7860    0.5530   -1.3410 ca        1 MOL     -0.232205
    122 C42       -11.9040    2.1590    0.6460 ca        1 MOL     -0.039516
    123 C43       -12.0080    0.1300   -0.7960 ca        1 MOL     -0.039516
    124 C44       -12.5810    0.9740    0.1800 ca        1 MOL     -0.174718
    125 H51        -6.2340    2.0300   -2.3450 hn        1 MOL      0.310957
    126 H52        -7.5830    2.1340    0.2540 h1        1 MOL      0.044685
    127 H53        -8.6400    1.3910   -2.3270 hc        1 MOL      0.038187
    128 H54        -8.5390    2.9950   -1.7640 hc        1 MOL      0.038187
    129 H55       -10.1750    3.3740    0.4450 ha        1 MOL      0.131026
    130 H56       -10.3050   -0.1020   -2.0420 ha        1 MOL      0.131026
    131 H57       -12.2810    2.7810    1.4450 ha        1 MOL      0.104503
    132 H58       -12.4880   -0.7530   -1.1910 ha        1 MOL      0.104503
    133 H59       -13.5560    0.7130    0.5710 ha        1 MOL      0.106729
    134 N12        -7.4660   -1.0280   -0.9320 n         1 MOL     -0.092181
    135 C45        -7.4740   -2.4010   -0.3510 c3        1 MOL     -0.030275
    136 C46        -6.3290   -2.6340    0.6920 c         1 MOL      0.317976
    137 O20        -6.4120   -3.6170    1.4840 o         1 MOL     -0.509238
    138 C47        -7.1740   -3.3080   -1.5510 c3        1 MOL     -0.193880
    139 C48        -6.5460   -2.4340   -2.6190 c3        1 MOL      0.083685
    140 C49        -7.1560   -0.9850   -2.3620 c3        1 MOL     -0.067969
    141 H60        -8.4530   -2.6760    0.0430 h1        1 MOL      0.100902
    142 H61        -6.5160   -4.1040   -1.2040 hc        1 MOL      0.083407
    143 H62        -8.1880   -3.6470   -1.7970 hc        1 MOL      0.083407
    144 H63        -5.4780   -2.4350   -2.4120 hc        1 MOL     -0.004233
    145 H64        -6.8490   -2.8110   -3.5940 hc        1 MOL     -0.004233
    146 H65        -6.3720   -0.2830   -2.6450 h1        1 MOL      0.037918
    147 H66        -8.0550   -0.7570   -2.9330 h1        1 MOL      0.037918
    148 N13        -5.3370   -1.7550    0.7660 n         1 MOL     -0.039430
    149 C50        -4.3570   -1.8350    1.8870 c3        1 MOL     -0.137664
    150 C51        -4.7400   -0.9820    3.1600 c         1 MOL      0.498951
    151 O21        -4.5570   -1.3840    4.2960 o         1 MOL     -0.564222
    152 C52        -2.9770   -1.2790    1.4170 c3        1 MOL      0.111584
    153 C53        -2.3070   -2.1320    0.3200 c3        1 MOL     -0.369374
    154 C54        -1.0150   -1.5260   -0.2990 c         1 MOL      0.898979
    155 O22        -1.0650   -0.4560   -0.9260 o         1 MOL     -0.839560
    156 O23         0.0850   -2.1750   -0.2380 o         1 MOL     -0.839560
    157 H67        -5.2610   -0.9910    0.1090 hn        1 MOL      0.266069
    158 H68        -4.2780   -2.8490    2.2780 h1        1 MOL      0.110796
    159 H69        -2.3070   -1.1030    2.2580 hc        1 MOL      0.028929
    160 H70        -3.2580   -0.3330    0.9670 hc        1 MOL      0.028929
    161 H71        -3.0700   -2.2070   -0.4620 hc        1 MOL      0.091848
    162 H72        -2.2150   -3.1650    0.6620 hc        1 MOL      0.091848
    163 N14        -5.3980    0.1230    2.8520 n         1 MOL      0.043722
    164 C55        -6.0410    0.9000    3.8850 c3        1 MOL     -0.203242
    165 H73        -6.6050    0.2350    4.5400 h1        1 MOL      0.074098
    166 H74        -5.2860    1.4290    4.4660 h1        1 MOL      0.074098
    167 H75        -6.7190    1.6210    3.4290 h1        1 MOL      0.074098
    168 H76        -5.5840    0.2030    1.8650 hn        1 MOL     -0.058217
    169 Ca1         1.4350   -0.4500   -1.6460 Ca        1 MOL      1.712377
    170 O24         1.8750   -0.0110   -4.4530 oh        1 MOL     -0.768565
    171 H77         1.6880   -0.9260   -4.6720 ho        1 MOL      0.370275
    172 H78         1.2750    0.4980   -4.9990 ho        1 MOL      0.370275
    173 O25         0.4290    1.9220   -2.6210 oh        1 MOL     -0.768565
    174 H79         0.8080    2.4590   -3.3160 ho        1 MOL      0.370275
    175 H80        -0.5230    1.9920   -2.7630 ho        1 MOL      0.370275
    176 O26         3.7580    0.8340   -1.8340 oh        1 MOL     -0.768565
    177 H81         4.3020    0.6440   -1.0710 ho        1 MOL      0.370275
    178 H82         4.1830    1.5930   -2.2430 ho        1 MOL      0.370275
    179 O27        -0.2880   -1.7620   -3.3340 oh        1 MOL     -0.768565
    180 H83        -0.5700   -2.6410   -3.5780 ho        1 MOL      0.370275
    181 H84        -0.8820   -1.1740   -3.7980 ho        1 MOL      0.370275
@<TRIPOS>BOND
     1    1    2 1   
     2    1    4 1   
     3    1    5 1   
     4    1    6 1   
     5    2    3 2   
     6    2    7 1   
     7    7    8 1   
     8    7   15 1   
     9    8    9 1   
    10    8   11 1   
    11    8   16 1   
    12    9   10 2   
    13    9   19 1   
    14   11   12 1   
    15   11   17 1   
    16   11   18 1   
    17   12   13 1   
    18   12   14 1   
    19   19   20 1   
    20   19   24 1   
    21   20   21 1   
    22   20   23 1   
    23   20   25 1   
    24   21   22 2   
    25   21   29 1   
    26   23   26 1   
    27   23   27 1   
    28   23   28 1   
    29   29   30 1   
    30   29   37 1   
    31   30   31 1   
    32   30   33 1   
    33   30   38 1   
    34   31   32 2   
    35   31   41 1   
    36   33   34 1   
    37   33   39 1   
    38   33   40 1   
    39   34   35 1   
    40   34   36 1   
    41   41   42 1   
    42   41   45 1   
    43   42   43 1   
    44   42   46 1   
    45   42   47 1   
    46   43   44 2   
    47   43   48 1   
    48   48   49 1   
    49   48   56 1   
    50   49   50 1   
    51   49   52 1   
    52   49   57 1   
    53   50   51 2   
    54   50   62 1   
    55   52   53 1   
    56   52   58 1   
    57   52   59 1   
    58   53   54 1   
    59   53   55 2   
    60   54   60 1   
    61   54   61 1   
    62   62   63 1   
    63   62   66 1   
    64   63   64 1   
    65   63   67 1   
    66   63   68 1   
    67   64   65 2   
    68   64   69 1   
    69   69   70 1   
    70   69   76 1   
    71   70   71 1   
    72   70   73 1   
    73   70   77 1   
    74   71   72 2   
    75   71   83 1   
    76   73   74 1   
    77   73   75 1   
    78   73   78 1   
    79   74   80 1   
    80   74   81 1   
    81   74   82 1   
    82   75   79 1   
    83   83   84 1   
    84   83   91 1   
    85   84   85 1   
    86   84   87 1   
    87   84   92 1   
    88   85   86 2   
    89   85  102 1   
    90   87   88 1   
    91   87   89 1   
    92   87   93 1   
    93   88   90 1   
    94   88   94 1   
    95   88   95 1   
    96   89   96 1   
    97   89   97 1   
    98   89   98 1   
    99   90   99 1   
   100   90  100 1   
   101   90  101 1   
   102  102  103 1   
   103  102  110 1   
   104  103  104 1   
   105  103  106 1   
   106  103  111 1   
   107  104  105 2   
   108  104  114 1   
   109  106  107 1   
   110  106  112 1   
   111  106  113 1   
   112  107  108 1   
   113  107  109 1   
   114  114  115 1   
   115  114  125 1   
   116  115  116 1   
   117  115  118 1   
   118  115  126 1   
   119  116  117 2   
   120  116  134 1   
   121  118  119 1   
   122  118  127 1   
   123  118  128 1   
   124  119  120 ar  
   125  119  121 ar  
   126  120  122 ar  
   127  120  129 1   
   128  121  123 ar  
   129  121  130 1   
   130  122  124 ar  
   131  122  131 1   
   132  123  124 ar  
   133  123  132 1   
   134  124  133 1   
   135  134  135 1   
   136  134  140 1   
   137  135  136 1   
   138  135  138 1   
   139  135  141 1   
   140  136  137 2   
   141  136  148 1   
   142  138  139 1   
   143  138  142 1   
   144  138  143 1   
   145  139  140 1   
   146  139  144 1   
   147  139  145 1   
   148  140  146 1   
   149  140  147 1   
   150  148  149 1   
   151  148  157 1   
   152  149  150 1   
   153  149  152 1   
   154  149  158 1   
   155  150  151 2   
   156  150  163 1   
   157  152  153 1   
   158  152  159 1   
   159  152  160 1   
   160  153  154 1   
   161  153  161 1   
   162  153  162 1   
   163  154  155 1   
   164  154  156 1   
   165  163  164 1   
   166  163  168 1   
   167  164  165 1   
   168  164  166 1   
   169  164  167 1   
   170  170  171 1   
   171  170  172 1   
   172  173  174 1   
   173  173  175 1   
   174  176  177 1   
   175  176  178 1   
   176  179  180 1   
   177  179  181 1   
@<TRIPOS>SUBSTRUCTURE
     1 MOL         1 TEMP              0 ****  ****    0 ROOT
