@<TRIPOS>MOLECULE
MOL
  172   171     1     0     0
SMALL
resp


@<TRIPOS>ATOM
      1 C1          0.5730    3.2900    5.8190 c3        1 MOL     -0.535067
      2 C2         -0.0030    3.3910    4.4190 c         1 MOL      0.739499
      3 O1          0.6620    3.4060    3.4050 o         1 MOL     -0.550672
      4 H1         -0.1670    3.6340    6.5420 hc        1 MOL      0.138482
      5 H2          0.8330    2.2530    6.0320 hc        1 MOL      0.138482
      6 H3          1.4650    3.9110    5.8910 hc        1 MOL      0.138482
      7 N1         -1.3250    3.5420    4.2050 n         1 MOL     -0.613553
      8 C3         -2.0990    3.2280    2.9830 c3        1 MOL      0.264758
      9 C4         -2.2400    4.5260    2.0650 c         1 MOL      0.600146
     10 O2         -2.4400    5.5850    2.5940 o         1 MOL     -0.592784
     11 C5         -3.5160    2.8080    3.2820 c3        1 MOL     -0.424343
     12 C6         -4.2330    2.1130    2.0980 c         1 MOL      0.766218
     13 O3         -5.3880    1.6710    2.3370 o         1 MOL     -0.675773
     14 O4         -3.6380    1.9550    0.9830 o         1 MOL     -0.675773
     15 H4         -1.8880    3.5990    5.0460 hn        1 MOL      0.289386
     16 H5         -1.6310    2.4430    2.3780 h1        1 MOL      0.045405
     17 H6         -3.9790    3.7130    3.6720 hc        1 MOL      0.084591
     18 H7         -3.4520    2.0500    4.0720 hc        1 MOL      0.084591
     19 N2         -2.1430    4.3490    0.7330 n         1 MOL     -0.638423
     20 C7         -2.1950    5.3860   -0.2890 c3        1 MOL      0.387756
     21 C8         -3.2410    5.1130   -1.3720 c         1 MOL      0.434700
     22 O5         -3.3660    5.9860   -2.1940 o         1 MOL     -0.554452
     23 C9         -0.8320    5.4830   -0.8220 c3        1 MOL     -0.246726
     24 H8         -1.8360    3.4420    0.4250 hn        1 MOL      0.469659
     25 H9         -2.4150    6.3530    0.1740 h1        1 MOL     -0.001358
     26 H10        -0.6490    4.5740   -1.3940 hc        1 MOL      0.051946
     27 H11        -0.7150    6.4190   -1.3610 hc        1 MOL      0.051946
     28 H12        -0.1040    5.4680   -0.0100 hc        1 MOL      0.051946
     29 N3         -3.9750    4.0000   -1.3000 n         1 MOL     -0.409303
     30 C10        -4.9040    3.6850   -2.4400 c3        1 MOL      0.036958
     31 C11        -6.1370    2.7440   -2.0670 c         1 MOL      0.488318
     32 O6         -6.9650    2.5160   -2.9160 o         1 MOL     -0.537323
     33 C12        -4.0260    2.9800   -3.5100 c3        1 MOL      0.080447
     34 C13        -3.0240    1.8660   -3.1240 c         1 MOL      0.703651
     35 O7         -3.2590    1.1040   -2.1910 o         1 MOL     -0.704187
     36 O8         -1.9640    1.7570   -3.8290 o         1 MOL     -0.704187
     37 H13        -3.7570    3.1910   -0.7220 hn        1 MOL      0.140112
     38 H14        -5.3340    4.5740   -2.8940 h1        1 MOL      0.071169
     39 H15        -3.3880    3.7150   -3.9970 hc        1 MOL     -0.038017
     40 H16        -4.7180    2.6150   -4.2710 hc        1 MOL     -0.038017
     41 N4         -6.2380    2.2460   -0.8130 n         1 MOL     -0.320176
     42 C14        -7.4780    1.5630   -0.4870 c3        1 MOL     -0.175998
     43 C15        -7.5200    0.1210   -1.0010 c         1 MOL      0.459319
     44 O9         -8.5100   -0.5660   -0.7600 o         1 MOL     -0.592394
     45 H17        -5.4940    2.3380   -0.1390 hn        1 MOL      0.222146
     46 H18        -8.4140    2.0470   -0.7590 h1        1 MOL      0.123845
     47 H19        -7.5370    1.5470    0.6090 h1        1 MOL      0.123845
     48 N5         -6.4170   -0.3870   -1.5360 n         1 MOL     -0.137753
     49 C16        -6.3230   -1.7680   -1.9720 c3        1 MOL      0.001882
     50 C17        -6.2610   -2.9180   -0.9380 c         1 MOL      0.399932
     51 O10        -6.2680   -4.1330   -1.3340 o         1 MOL     -0.522557
     52 C18        -5.2480   -1.9210   -3.0410 c3        1 MOL     -0.187191
     53 C19        -3.7520   -1.9640   -2.5560 c         1 MOL      0.380530
     54 N6         -2.8800   -2.1350   -3.5460 n         1 MOL     -0.471162
     55 O11        -3.4810   -1.9730   -1.3860 o         1 MOL     -0.562022
     56 H20        -5.6390    0.2450   -1.6130 hn        1 MOL      0.125586
     57 H21        -7.2540   -1.9630   -2.5000 h1        1 MOL      0.100028
     58 H22        -5.3400   -1.0040   -3.6160 hc        1 MOL      0.069262
     59 H23        -5.5700   -2.7820   -3.6310 hc        1 MOL      0.069262
     60 H24        -3.2960   -2.2450   -4.4630 hn        1 MOL      0.299768
     61 H25        -1.8910   -2.1510   -3.3550 hn        1 MOL      0.299768
     62 N7         -6.1630   -2.5690    0.3640 n         1 MOL     -0.208425
     63 C20        -6.1500   -3.5870    1.4340 c3        1 MOL     -0.307001
     64 C21        -4.8930   -4.4020    1.6000 c         1 MOL      0.514265
     65 O12        -4.8530   -5.4440    2.2470 o         1 MOL     -0.578921
     66 H26        -6.0180   -1.5850    0.5610 hn        1 MOL      0.236264
     67 H27        -7.0140   -4.2280    1.2770 h1        1 MOL      0.142133
     68 H28        -6.3820   -3.0110    2.3400 h1        1 MOL      0.142133
     69 N8         -3.7950   -4.0030    0.9490 n         1 MOL     -0.289504
     70 C22        -2.4310   -4.5410    1.0570 c3        1 MOL     -0.090146
     71 C23        -1.4280   -3.5020    1.4000 c         1 MOL      0.400636
     72 O13        -1.5920   -2.3100    1.1010 o         1 MOL     -0.448524
     73 C24        -2.0910   -5.2330   -0.2480 c3        1 MOL      0.363397
     74 C25        -2.9150   -6.5780   -0.3100 c3        1 MOL     -0.463624
     75 O14        -2.4570   -4.4470   -1.3550 oh        1 MOL     -0.537690
     76 H29        -3.8690   -3.3860    0.1600 hn        1 MOL      0.522021
     77 H30        -2.4800   -5.3200    1.8180 h1        1 MOL      0.091204
     78 H31        -1.0290   -5.4340   -0.2980 h1        1 MOL     -0.008944
     79 H32        -2.0870   -3.5780   -1.1670 ho        1 MOL      0.302994
     80 H33        -2.6150   -7.2130    0.5240 hc        1 MOL      0.120743
     81 H34        -3.9540   -6.2330   -0.2730 hc        1 MOL      0.120743
     82 H35        -2.8280   -7.1190   -1.2500 hc        1 MOL      0.120743
     83 N9         -0.3260   -3.9180    2.0190 n         1 MOL     -0.402933
     84 C26         0.9190   -3.1310    1.9120 c3        1 MOL      0.011471
     85 C27         1.5320   -3.3630    0.5570 c         1 MOL      0.503419
     86 O15         1.8510   -4.4570    0.1380 o         1 MOL     -0.560320
     87 C28         1.8550   -3.3430    3.2010 c3        1 MOL      0.026029
     88 C29         1.3150   -2.9050    4.6250 c3        1 MOL      0.043284
     89 C30         3.1240   -2.5630    3.0000 c3        1 MOL     -0.207987
     90 C31         2.0410   -3.4830    5.8790 c3        1 MOL     -0.309437
     91 H36        -0.2710   -4.8990    2.2490 hn        1 MOL      0.255051
     92 H37         0.6300   -2.0780    1.9340 h1        1 MOL      0.086467
     93 H38         2.1170   -4.3940    3.2940 hc        1 MOL      0.024143
     94 H39         0.2250   -3.0160    4.6140 hc        1 MOL      0.015295
     95 H40         1.4240   -1.8180    4.6470 hc        1 MOL      0.015295
     96 H41         3.5290   -2.8060    2.0160 hc        1 MOL      0.047386
     97 H42         2.9520   -1.4850    2.9980 hc        1 MOL      0.047386
     98 H43         3.8340   -2.7400    3.8090 hc        1 MOL      0.047386
     99 H44         2.9900   -3.0010    6.1000 hc        1 MOL      0.082931
    100 H45         1.4390   -3.2100    6.7500 hc        1 MOL      0.082931
    101 H46         2.1950   -4.5430    5.7410 hc        1 MOL      0.082931
    102 N10         1.8080   -2.2290   -0.1450 n         1 MOL     -0.264775
    103 C32         2.6160   -2.1770   -1.3560 c3        1 MOL      0.225719
    104 C33         4.0360   -1.4880   -1.0670 c         1 MOL      0.254879
    105 O16         4.1910   -0.9320    0.0440 o         1 MOL     -0.224811
    106 C34         1.9200   -1.3870   -2.4770 c3        1 MOL     -0.171069
    107 C35         0.3440   -1.6710   -2.6080 c         1 MOL      0.602453
    108 O17        -0.5250   -1.2270   -1.7420 o         1 MOL     -0.621936
    109 O18        -0.0680   -2.2140   -3.6450 o         1 MOL     -0.621936
    110 H47         1.6150   -1.3170    0.2490 hn        1 MOL      0.125438
    111 H48         2.8040   -3.1630   -1.7800 h1        1 MOL      0.027840
    112 H49         2.3530   -1.6660   -3.4310 hc        1 MOL      0.044747
    113 H50         2.0870   -0.3230   -2.3150 hc        1 MOL      0.044747
    114 N11         4.9240   -1.4950   -2.0130 n         1 MOL     -0.586819
    115 C36         6.3310   -1.2260   -1.6480 c3        1 MOL      0.290919
    116 C37         6.6220    0.2200   -1.1600 c         1 MOL      0.421394
    117 O19         7.3010    0.3330   -0.1540 o         1 MOL     -0.495450
    118 C38         7.2580   -1.5890   -2.8140 c3        1 MOL     -0.303177
    119 C39         8.7650   -1.3730   -2.4910 ca        1 MOL      0.047717
    120 C40         9.3490   -2.1320   -1.4470 ca        1 MOL     -0.116751
    121 C41         9.6240   -0.4240   -3.1910 ca        1 MOL     -0.116751
    122 C42        10.6280   -1.8870   -1.0680 ca        1 MOL     -0.170755
    123 C43        10.9550   -0.1490   -2.7610 ca        1 MOL     -0.170755
    124 C44        11.4120   -0.8590   -1.6200 ca        1 MOL     -0.026990
    125 H51         4.6620   -1.9820   -2.8660 hn        1 MOL      0.344480
    126 H52         6.6600   -1.8060   -0.7800 h1        1 MOL      0.085452
    127 H53         6.9340   -1.1470   -3.7550 hc        1 MOL      0.100168
    128 H54         7.2390   -2.6610   -2.9910 hc        1 MOL      0.100168
    129 H55         8.7500   -2.8430   -0.9060 ha        1 MOL      0.105549
    130 H56         9.2780   -0.0450   -4.1440 ha        1 MOL      0.105549
    131 H57        10.9620   -2.5230   -0.2670 ha        1 MOL      0.125950
    132 H58        11.6520    0.5170   -3.2510 ha        1 MOL      0.125950
    133 H59        12.4440   -0.7450   -1.3240 ha        1 MOL      0.075984
    134 N12         6.0200    1.2910   -1.7110 n         1 MOL     -0.163317
    135 C45         6.2520    2.6190   -1.1410 c3        1 MOL     -0.119776
    136 C46         5.4760    2.8660    0.1650 c         1 MOL      0.488864
    137 O20         5.8520    3.8070    0.8960 o         1 MOL     -0.545454
    138 C47         5.7260    3.6190   -2.1670 c3        1 MOL     -0.122514
    139 C48         4.6210    2.9440   -3.0010 c3        1 MOL      0.027816
    140 C49         5.0550    1.4490   -2.8560 c3        1 MOL      0.059819
    141 H60         7.3120    2.8420   -0.9950 h1        1 MOL      0.120081
    142 H61         5.4350    4.5870   -1.7530 hc        1 MOL      0.055864
    143 H62         6.5210    3.7420   -2.8970 hc        1 MOL      0.055864
    144 H63         3.6160    3.0380   -2.5870 hc        1 MOL      0.025163
    145 H64         4.6580    3.2770   -4.0450 hc        1 MOL      0.025163
    146 H65         4.1870    0.8220   -2.6610 h1        1 MOL      0.014772
    147 H66         5.5250    1.1290   -3.7900 h1        1 MOL      0.014772
    148 N13         4.7000    1.8970    0.5950 n         1 MOL     -0.293031
    149 C50         4.0240    1.8700    1.9060 c3        1 MOL     -0.140727
    150 C51         4.7860    1.0940    2.9030 c         1 MOL      0.572490
    151 O21         4.7510    1.4120    4.0860 o         1 MOL     -0.576899
    152 C52         2.5990    1.3070    1.7880 c3        1 MOL     -0.103599
    153 C53         1.7300    2.0740    0.7360 c3        1 MOL      0.001171
    154 C54         0.3280    1.5550    0.6770 c         1 MOL      0.491559
    155 O22        -0.0980    0.5200    1.2950 o         1 MOL     -0.751290
    156 O23        -0.4480    2.1330   -0.0830 o         1 MOL     -0.751290
    157 H67         4.4490    1.1350   -0.0190 hn        1 MOL      0.225721
    158 H68         3.9330    2.8630    2.3640 h1        1 MOL      0.114949
    159 H69         2.1330    1.3600    2.7700 hc        1 MOL      0.100199
    160 H70         2.6390    0.2790    1.4370 hc        1 MOL      0.100199
    161 H71         2.1560    1.9420   -0.2620 hc        1 MOL      0.073889
    162 H72         1.7740    3.1510    0.8900 hc        1 MOL      0.073889
    163 N14         5.4790    0.0200    2.4470 n         1 MOL     -0.132133
    164 C55         6.4310   -0.7990    3.1960 c3        1 MOL     -0.153941
    165 H73         6.1560   -0.8030    4.2510 h1        1 MOL      0.063299
    166 H74         6.4140   -1.8200    2.8130 h1        1 MOL      0.063299
    167 H75         7.4340   -0.3860    3.0840 h1        1 MOL      0.063299
    168 H76         5.2270   -0.3610    1.5510 hn        1 MOL      0.041915
    169 Ca1        -2.0930    0.0160   -0.2320 Ca        1 MOL      1.663307
    170 O24        -3.9400   -1.0350    1.5150 oh        1 MOL     -0.946353
    171 H77        -3.2980   -0.7620    2.1720 ho        1 MOL      0.420001
    172 H78        -4.7780   -0.6800    1.8300 ho        1 MOL      0.420001
@<TRIPOS>BOND
     1    1    2 1   
     2    1    4 1   
     3    1    5 1   
     4    1    6 1   
     5    2    3 2   
     6    2    7 1   
     7    7    8 1   
     8    7   15 1   
     9    8    9 1   
    10    8   11 1   
    11    8   16 1   
    12    9   10 2   
    13    9   19 1   
    14   11   12 1   
    15   11   17 1   
    16   11   18 1   
    17   12   13 1   
    18   12   14 1   
    19   19   20 1   
    20   19   24 1   
    21   20   21 1   
    22   20   23 1   
    23   20   25 1   
    24   21   22 2   
    25   21   29 1   
    26   23   26 1   
    27   23   27 1   
    28   23   28 1   
    29   29   30 1   
    30   29   37 1   
    31   30   31 1   
    32   30   33 1   
    33   30   38 1   
    34   31   32 2   
    35   31   41 1   
    36   33   34 1   
    37   33   39 1   
    38   33   40 1   
    39   34   35 1   
    40   34   36 1   
    41   41   42 1   
    42   41   45 1   
    43   42   43 1   
    44   42   46 1   
    45   42   47 1   
    46   43   44 2   
    47   43   48 1   
    48   48   49 1   
    49   48   56 1   
    50   49   50 1   
    51   49   52 1   
    52   49   57 1   
    53   50   51 2   
    54   50   62 1   
    55   52   53 1   
    56   52   58 1   
    57   52   59 1   
    58   53   54 1   
    59   53   55 2   
    60   54   60 1   
    61   54   61 1   
    62   62   63 1   
    63   62   66 1   
    64   63   64 1   
    65   63   67 1   
    66   63   68 1   
    67   64   65 2   
    68   64   69 1   
    69   69   70 1   
    70   69   76 1   
    71   70   71 1   
    72   70   73 1   
    73   70   77 1   
    74   71   72 2   
    75   71   83 1   
    76   73   74 1   
    77   73   75 1   
    78   73   78 1   
    79   74   80 1   
    80   74   81 1   
    81   74   82 1   
    82   75   79 1   
    83   83   84 1   
    84   83   91 1   
    85   84   85 1   
    86   84   87 1   
    87   84   92 1   
    88   85   86 2   
    89   85  102 1   
    90   87   88 1   
    91   87   89 1   
    92   87   93 1   
    93   88   90 1   
    94   88   94 1   
    95   88   95 1   
    96   89   96 1   
    97   89   97 1   
    98   89   98 1   
    99   90   99 1   
   100   90  100 1   
   101   90  101 1   
   102  102  103 1   
   103  102  110 1   
   104  103  104 1   
   105  103  106 1   
   106  103  111 1   
   107  104  105 2   
   108  104  114 1   
   109  106  107 1   
   110  106  112 1   
   111  106  113 1   
   112  107  108 1   
   113  107  109 1   
   114  114  115 1   
   115  114  125 1   
   116  115  116 1   
   117  115  118 1   
   118  115  126 1   
   119  116  117 2   
   120  116  134 1   
   121  118  119 1   
   122  118  127 1   
   123  118  128 1   
   124  119  120 ar  
   125  119  121 ar  
   126  120  122 ar  
   127  120  129 1   
   128  121  123 ar  
   129  121  130 1   
   130  122  124 ar  
   131  122  131 1   
   132  123  124 ar  
   133  123  132 1   
   134  124  133 1   
   135  134  135 1   
   136  134  140 1   
   137  135  136 1   
   138  135  138 1   
   139  135  141 1   
   140  136  137 2   
   141  136  148 1   
   142  138  139 1   
   143  138  142 1   
   144  138  143 1   
   145  139  140 1   
   146  139  144 1   
   147  139  145 1   
   148  140  146 1   
   149  140  147 1   
   150  148  149 1   
   151  148  157 1   
   152  149  150 1   
   153  149  152 1   
   154  149  158 1   
   155  150  151 2   
   156  150  163 1   
   157  152  153 1   
   158  152  159 1   
   159  152  160 1   
   160  153  154 1   
   161  153  161 1   
   162  153  162 1   
   163  154  155 1   
   164  154  156 1   
   165  163  164 1   
   166  163  168 1   
   167  164  165 1   
   168  164  166 1   
   169  164  167 1   
   170  170  171 1   
   171  170  172 1   
@<TRIPOS>SUBSTRUCTURE
     1 MOL         1 TEMP              0 ****  ****    0 ROOT
