@<TRIPOS>MOLECULE
MOL
  189   185     1     0     0
SMALL
resp


@<TRIPOS>ATOM
      1 C1         -1.9220    2.9080    6.2040 c3        1 MOL     -0.276449
      2 C2         -1.5810    2.8020    4.6950 c         1 MOL      0.722227
      3 O1         -1.1240    1.7480    4.2260 o         1 MOL     -0.558248
      4 H1         -3.0050    2.9130    6.3320 hc        1 MOL      0.072324
      5 H2         -1.4980    2.0550    6.7330 hc        1 MOL      0.072324
      6 H3         -1.5060    3.8310    6.6070 hc        1 MOL      0.072324
      7 N1         -2.2150    3.6990    3.8670 n         1 MOL     -0.722042
      8 C3         -2.6780    3.4300    2.5240 c3        1 MOL      0.465489
      9 C4         -2.4450    4.6820    1.5880 c         1 MOL      0.327051
     10 O2         -2.8060    5.8110    1.9230 o         1 MOL     -0.557048
     11 C5         -4.1670    3.1630    2.4730 c3        1 MOL     -0.386588
     12 C6         -4.5780    2.9790    1.0400 c         1 MOL      0.567625
     13 O3         -3.8950    2.2510    0.2580 o         1 MOL     -0.581382
     14 O4         -5.4950    3.6910    0.6310 o         1 MOL     -0.581382
     15 H4         -2.6580    4.4790    4.3430 hn        1 MOL      0.327572
     16 H5         -2.1250    2.6280    2.0510 h1        1 MOL     -0.012839
     17 H6         -4.5950    4.1320    2.7440 hc        1 MOL      0.082910
     18 H7         -4.4320    2.2960    3.0810 hc        1 MOL      0.082910
     19 N2         -1.9180    4.4720    0.3600 n         1 MOL      0.269005
     20 C7         -1.5650    5.4740   -0.5990 c3        1 MOL     -0.217233
     21 C8         -2.0200    5.1420   -2.0530 c         1 MOL      0.458783
     22 O5         -1.7140    5.8980   -2.9950 o         1 MOL     -0.562119
     23 C9         -0.0480    5.8730   -0.5220 c3        1 MOL      0.349315
     24 C10         1.0860    4.9180   -0.9380 c3        1 MOL      0.003798
     25 C11         0.2990    6.3580    0.9200 c3        1 MOL     -0.340063
     26 C12         2.1670    5.6560   -1.6790 c3        1 MOL     -0.418088
     27 H8         -1.6630    3.5260    0.1220 hn        1 MOL     -0.194975
     28 H9         -2.1500    6.3350   -0.2760 h1        1 MOL      0.076377
     29 H10        -0.0030    6.7390   -1.1840 hc        1 MOL     -0.044538
     30 H11         0.7220    4.0700   -1.5150 hc        1 MOL      0.047746
     31 H12         1.6710    4.4150   -0.1650 hc        1 MOL      0.047746
     32 H13        -0.5320    6.9930    1.2350 hc        1 MOL      0.057542
     33 H14         0.4060    5.5280    1.6190 hc        1 MOL      0.057542
     34 H15         1.1320    7.0470    0.7860 hc        1 MOL      0.057542
     35 H16         1.7230    6.1650   -2.5290 hc        1 MOL      0.105371
     36 H17         2.5850    6.3970   -1.0010 hc        1 MOL      0.105371
     37 H18         2.8710    4.8900   -2.0250 hc        1 MOL      0.105371
     38 N3         -2.7570    4.0380   -2.1990 n         1 MOL     -0.228687
     39 C13        -3.2640    3.5190   -3.4670 c3        1 MOL      0.064008
     40 C14        -4.7480    3.0280   -3.4220 c         1 MOL      0.423664
     41 O6         -5.3780    3.0670   -4.4250 o         1 MOL     -0.549440
     42 C15        -2.3400    2.4360   -4.0810 c3        1 MOL     -0.174994
     43 C16        -2.0910    1.2550   -3.1970 c         1 MOL      0.812690
     44 O7         -3.0660    0.7170   -2.5480 o         1 MOL     -0.719100
     45 O8         -0.9670    0.7260   -3.2340 o         1 MOL     -0.719100
     46 H19        -3.1360    3.6230   -1.3600 hn        1 MOL      0.122005
     47 H20        -3.2680    4.3440   -4.1920 h1        1 MOL      0.064529
     48 H21        -1.4080    2.9650   -4.2750 hc        1 MOL      0.051241
     49 H22        -2.7240    2.0380   -5.0240 hc        1 MOL      0.051241
     50 N4         -5.2640    2.5540   -2.2350 n         1 MOL     -0.122721
     51 C17        -6.6750    2.2800   -2.0640 c3        1 MOL     -0.085286
     52 C18        -7.0320    0.7630   -2.1660 c         1 MOL      0.466011
     53 O9         -8.1790    0.3360   -2.1990 o         1 MOL     -0.625395
     54 H23        -4.6220    2.4290   -1.4610 hn        1 MOL      0.043628
     55 H24        -7.2700    2.8630   -2.7640 h1        1 MOL      0.073742
     56 H25        -6.9530    2.6790   -1.0810 h1        1 MOL      0.073742
     57 N5         -6.0850   -0.1500   -2.3890 n         1 MOL     -0.118389
     58 C19        -6.2000   -1.5430   -2.7730 c3        1 MOL     -0.071039
     59 C20        -6.6260   -2.5040   -1.6880 c         1 MOL      0.403250
     60 O10        -6.6800   -3.7410   -1.8640 o         1 MOL     -0.524917
     61 C21        -4.8850   -2.0910   -3.4470 c3        1 MOL     -0.383716
     62 C22        -3.6780   -2.3310   -2.4720 c         1 MOL      0.785530
     63 O11        -3.7660   -1.9750   -1.2950 o         1 MOL     -0.723215
     64 O12        -2.6480   -2.8670   -2.9630 o         1 MOL     -0.723215
     65 H26        -5.1690    0.2620   -2.3680 hn        1 MOL      0.145195
     66 H27        -7.0700   -1.6310   -3.4130 h1        1 MOL      0.125370
     67 H28        -4.5560   -1.3450   -4.1730 hc        1 MOL      0.115203
     68 H29        -5.0620   -3.0610   -3.9210 hc        1 MOL      0.115203
     69 N6         -6.8160   -2.0970   -0.4360 n         1 MOL     -0.151913
     70 C23        -7.2130   -2.9510    0.7370 c3        1 MOL     -0.301388
     71 C24        -6.1980   -3.8800    1.2990 c         1 MOL      0.654949
     72 O13        -6.4770   -4.8400    1.8800 o         1 MOL     -0.580886
     73 H30        -6.8030   -1.1000   -0.2750 hn        1 MOL      0.214215
     74 H31        -8.1180   -3.5240    0.5440 h1        1 MOL      0.110399
     75 H32        -7.4730   -2.2230    1.5050 h1        1 MOL      0.110399
     76 N7         -4.9120   -3.5630    1.1140 n         1 MOL     -0.319051
     77 C25        -3.7600   -4.2160    1.6650 c3        1 MOL      0.043117
     78 C26        -2.6030   -3.1640    1.8840 c         1 MOL      0.639592
     79 O14        -2.4140   -2.2370    1.0810 o         1 MOL     -0.539962
     80 C27        -3.4320   -5.3800    0.7760 c3        1 MOL     -0.109232
     81 C28        -3.4500   -5.0370   -0.7040 c3        1 MOL      0.079045
     82 C29        -2.9500   -6.2010   -1.5970 c         1 MOL      0.550641
     83 N8         -2.8220   -6.0150   -2.8760 n         1 MOL     -0.760702
     84 O15        -2.5380   -7.2600   -1.1040 o         1 MOL     -0.607056
     85 H33        -4.7270   -2.7660    0.5220 hn        1 MOL      0.153743
     86 H34        -3.9900   -4.5280    2.6870 h1        1 MOL      0.008932
     87 H35        -4.1420   -6.1640    1.0100 hc        1 MOL      0.028248
     88 H36        -2.4260   -5.7230    1.0330 hc        1 MOL      0.028248
     89 H37        -2.8410   -4.1350   -0.7930 hc        1 MOL      0.068750
     90 H38        -4.4670   -4.8430   -1.0450 hc        1 MOL      0.068750
     91 H39        -2.7340   -5.0970   -3.2870 hn        1 MOL      0.346605
     92 H40        -2.4960   -6.8070   -3.4080 hn        1 MOL      0.346605
     93 N9         -1.7700   -3.2420    2.9280 n         1 MOL     -0.589382
     94 C30        -0.5740   -2.3790    3.0270 c3        1 MOL     -0.027267
     95 C31         0.6320   -3.0790    2.4140 c         1 MOL      0.867308
     96 O16         0.7850   -4.2880    2.5410 o         1 MOL     -0.600587
     97 C32        -0.2550   -2.0590    4.5050 c3        1 MOL      0.022764
     98 C33        -0.1600   -3.2290    5.5140 c3        1 MOL     -0.075590
     99 C34         0.8410   -1.0340    4.7770 c3        1 MOL     -0.075590
    100 H41        -2.0540   -3.9500    3.5910 hn        1 MOL      0.321804
    101 H42        -0.7600   -1.3790    2.6120 h1        1 MOL     -0.059563
    102 H43        -1.1100   -1.5390    4.9400 hc        1 MOL      0.028722
    103 H44        -1.1160   -3.6870    5.7850 hc        1 MOL      0.012088
    104 H45         0.4520   -4.0320    5.1040 hc        1 MOL      0.012088
    105 H46         0.3110   -2.9820    6.4690 hc        1 MOL      0.012088
    106 H47         1.8600   -1.3560    4.5730 hc        1 MOL      0.012088
    107 H48         0.6030   -0.0970    4.2780 hc        1 MOL      0.012088
    108 H49         0.8400   -0.8020    5.8360 hc        1 MOL      0.012088
    109 N10         1.4660   -2.3330    1.6710 n         1 MOL     -0.580597
    110 C35         2.6650   -2.8660    1.0050 c3        1 MOL      0.066695
    111 C36         3.9210   -2.2630    1.4830 c         1 MOL      0.400427
    112 O17         3.9760   -1.3700    2.3380 o         1 MOL     -0.437194
    113 C37         2.5950   -2.7190   -0.5710 c3        1 MOL     -0.145088
    114 C38         2.8340   -1.3350   -1.1970 c         1 MOL      0.457777
    115 N11         1.7500   -0.6750   -1.6140 n         1 MOL     -0.613274
    116 O18         3.9550   -0.8290   -1.2130 o         1 MOL     -0.495768
    117 H50         1.2930   -1.3330    1.6470 hn        1 MOL      0.306668
    118 H51         2.6480   -3.9440    1.1270 h1        1 MOL      0.065513
    119 H52         1.6090   -2.9590   -0.9610 hc        1 MOL      0.076610
    120 H53         3.2340   -3.4430   -1.0700 hc        1 MOL      0.076610
    121 H54         0.9220   -1.2610   -1.6520 hn        1 MOL      0.348739
    122 H55         1.8420    0.3040   -1.8290 hn        1 MOL      0.348739
    123 N12         5.0190   -2.7700    0.8630 n         1 MOL     -0.269501
    124 C39         6.4030   -2.7760    1.3690 c3        1 MOL     -0.024762
    125 C40         7.0760   -1.4050    1.1900 c         1 MOL      0.390669
    126 O19         7.7630   -0.9240    2.1020 o         1 MOL     -0.573473
    127 C41         7.3140   -3.7590    0.5280 c3        1 MOL     -0.258822
    128 C42         7.4890   -3.5130   -0.9860 ca        1 MOL     -0.034237
    129 C43         8.4760   -2.5210   -1.3400 ca        1 MOL     -0.115977
    130 C44         6.6330   -4.1650   -1.8760 ca        1 MOL     -0.115977
    131 C45         8.6730   -2.2510   -2.6990 ca        1 MOL     -0.322152
    132 C46         6.8360   -3.9250   -3.2270 ca        1 MOL     -0.322152
    133 C47         7.8370   -2.9790   -3.6130 ca        1 MOL      0.431490
    134 O20         7.9950   -2.8520   -4.9350 oh        1 MOL     -0.561392
    135 H56         4.8620   -3.3710    0.0670 hn        1 MOL      0.191088
    136 H57         6.3360   -2.9190    2.4450 h1        1 MOL      0.097373
    137 H58         6.9740   -4.7880    0.6720 hc        1 MOL      0.093708
    138 H59         8.2870   -3.7010    1.0090 hc        1 MOL      0.093708
    139 H60         9.1060   -2.1190   -0.5680 ha        1 MOL      0.146186
    140 H61         5.8510   -4.8680   -1.6230 ha        1 MOL      0.146186
    141 H62         9.4660   -1.5730   -2.9760 ha        1 MOL      0.168253
    142 H63         6.1960   -4.3730   -3.9640 ha        1 MOL      0.168253
    143 H64         8.3490   -1.9820   -5.1250 ho        1 MOL      0.418906
    144 N13         6.7080   -0.6530    0.1350 n         1 MOL     -0.019705
    145 C48         7.0740    0.7180    0.0050 c3        1 MOL     -0.033583
    146 C49         6.0380    1.7210    0.6090 c         1 MOL      0.339810
    147 O21         6.4180    2.6690    1.1890 o         1 MOL     -0.515792
    148 C50         7.5020    1.0200   -1.4700 c3        1 MOL      0.041259
    149 C51         8.2070    2.3110   -1.6990 c3        1 MOL     -0.171908
    150 C52         8.6940    2.6200   -3.1340 c         1 MOL      0.624997
    151 O22         9.7170    3.3490   -3.3480 o         1 MOL     -0.720966
    152 O23         7.9130    2.3400   -4.0590 o         1 MOL     -0.720966
    153 H65         6.0660   -1.0630   -0.5290 hn        1 MOL      0.169188
    154 H66         7.9780    0.8970    0.5900 h1        1 MOL      0.087903
    155 H67         6.6990    0.8460   -2.1860 hc        1 MOL     -0.000071
    156 H68         8.1770    0.1750   -1.6370 hc        1 MOL     -0.000071
    157 H69         9.0440    2.4270   -1.0130 hc        1 MOL      0.023494
    158 H70         7.5470    3.1440   -1.4320 hc        1 MOL      0.023494
    159 N14         4.7510    1.3710    0.5720 n         1 MOL     -0.045145
    160 C53         3.6900    2.2660    1.0790 c3        1 MOL     -0.180353
    161 C54         3.8880    2.3990    2.5720 c         1 MOL      0.508265
    162 O24         3.5120    3.4580    3.0810 o         1 MOL     -0.576573
    163 C55         2.3040    1.6020    0.7380 c3        1 MOL      0.063509
    164 C56         1.0400    2.0460    1.4540 c3        1 MOL     -0.241555
    165 C57        -0.1370    1.3550    0.7030 c         1 MOL      0.518253
    166 O25        -0.3270    0.1150    0.9220 o         1 MOL     -0.570075
    167 O26        -0.9900    1.9170   -0.0000 o         1 MOL     -0.570075
    168 H71         4.3890    0.5880    0.0420 hn        1 MOL      0.044422
    169 H72         3.8700    3.2830    0.7440 h1        1 MOL      0.137810
    170 H73         2.5010    0.5630    0.9960 hc        1 MOL      0.055357
    171 H74         2.1610    1.6060   -0.3420 hc        1 MOL      0.055357
    172 H75         0.9530    3.1260    1.4270 hc        1 MOL      0.077536
    173 H76         0.9770    1.7790    2.5080 hc        1 MOL      0.077536
    174 N15         4.3640    1.4150    3.3680 n         1 MOL     -0.146560
    175 C58         4.7180    1.4950    4.8130 c3        1 MOL     -0.323658
    176 H77         3.8440    1.2490    5.4150 h1        1 MOL      0.115575
    177 H78         5.5200    0.7890    5.0300 h1        1 MOL      0.115575
    178 H79         5.0500    2.5060    5.0510 h1        1 MOL      0.115575
    179 H80         4.6360    0.5560    2.9100 hn        1 MOL      0.204936
    180 Ca1        -2.6620   -0.0600   -0.0560 Ca        1 MOL      1.717023
    181 O27        -2.8670    0.1650    2.7350 oh        1 MOL     -0.946491
    182 H81        -3.0380   -0.5050    3.4030 ho        1 MOL      0.453487
    183 H82        -2.1330    0.6720    3.0790 ho        1 MOL      0.453487
    184 O28        -5.1020   -0.4190    1.2520 oh        1 MOL     -0.946491
    185 H83        -4.7210   -0.1440    2.0780 ho        1 MOL      0.453487
    186 H84        -5.8840    0.1270    1.1530 ho        1 MOL      0.453487
    187 O29        -0.8630   -1.3740   -1.8090 oh        1 MOL     -0.946491
    188 H85        -1.3260   -1.9880   -2.3840 ho        1 MOL      0.453487
    189 H86        -0.9050   -0.5380   -2.2830 ho        1 MOL      0.453487
@<TRIPOS>BOND
     1    1    2 1   
     2    1    4 1   
     3    1    5 1   
     4    1    6 1   
     5    2    3 2   
     6    2    7 1   
     7    7    8 1   
     8    7   15 1   
     9    8    9 1   
    10    8   11 1   
    11    8   16 1   
    12    9   10 2   
    13    9   19 1   
    14   11   12 1   
    15   11   17 1   
    16   11   18 1   
    17   12   13 1   
    18   12   14 1   
    19   19   20 1   
    20   19   27 1   
    21   20   21 1   
    22   20   23 1   
    23   20   28 1   
    24   21   22 2   
    25   21   38 1   
    26   23   24 1   
    27   23   25 1   
    28   23   29 1   
    29   24   26 1   
    30   24   30 1   
    31   24   31 1   
    32   25   32 1   
    33   25   33 1   
    34   25   34 1   
    35   26   35 1   
    36   26   36 1   
    37   26   37 1   
    38   38   39 1   
    39   38   46 1   
    40   39   40 1   
    41   39   42 1   
    42   39   47 1   
    43   40   41 2   
    44   40   50 1   
    45   42   43 1   
    46   42   48 1   
    47   42   49 1   
    48   43   44 1   
    49   43   45 1   
    50   50   51 1   
    51   50   54 1   
    52   51   52 1   
    53   51   55 1   
    54   51   56 1   
    55   52   53 2   
    56   52   57 1   
    57   57   58 1   
    58   57   65 1   
    59   58   59 1   
    60   58   61 1   
    61   58   66 1   
    62   59   60 2   
    63   59   69 1   
    64   61   62 1   
    65   61   67 1   
    66   61   68 1   
    67   62   63 1   
    68   62   64 1   
    69   69   70 1   
    70   69   73 1   
    71   70   71 1   
    72   70   74 1   
    73   70   75 1   
    74   71   72 2   
    75   71   76 1   
    76   76   77 1   
    77   76   85 1   
    78   77   78 1   
    79   77   80 1   
    80   77   86 1   
    81   78   79 2   
    82   78   93 1   
    83   80   81 1   
    84   80   87 1   
    85   80   88 1   
    86   81   82 1   
    87   81   89 1   
    88   81   90 1   
    89   82   83 1   
    90   82   84 2   
    91   83   91 1   
    92   83   92 1   
    93   93   94 1   
    94   93  100 1   
    95   94   95 1   
    96   94   97 1   
    97   94  101 1   
    98   95   96 2   
    99   95  109 1   
   100   97   98 1   
   101   97   99 1   
   102   97  102 1   
   103   98  103 1   
   104   98  104 1   
   105   98  105 1   
   106   99  106 1   
   107   99  107 1   
   108   99  108 1   
   109  109  110 1   
   110  109  117 1   
   111  110  111 1   
   112  110  113 1   
   113  110  118 1   
   114  111  112 2   
   115  111  123 1   
   116  113  114 1   
   117  113  119 1   
   118  113  120 1   
   119  114  115 1   
   120  114  116 2   
   121  115  121 1   
   122  115  122 1   
   123  123  124 1   
   124  123  135 1   
   125  124  125 1   
   126  124  127 1   
   127  124  136 1   
   128  125  126 2   
   129  125  144 1   
   130  127  128 1   
   131  127  137 1   
   132  127  138 1   
   133  128  129 ar  
   134  128  130 ar  
   135  129  131 ar  
   136  129  139 1   
   137  130  132 ar  
   138  130  140 1   
   139  131  133 ar  
   140  131  141 1   
   141  132  133 ar  
   142  132  142 1   
   143  133  134 1   
   144  134  143 1   
   145  144  145 1   
   146  144  153 1   
   147  145  146 1   
   148  145  148 1   
   149  145  154 1   
   150  146  147 2   
   151  146  159 1   
   152  148  149 1   
   153  148  155 1   
   154  148  156 1   
   155  149  150 1   
   156  149  157 1   
   157  149  158 1   
   158  150  151 1   
   159  150  152 1   
   160  159  160 1   
   161  159  168 1   
   162  160  161 1   
   163  160  163 1   
   164  160  169 1   
   165  161  162 2   
   166  161  174 1   
   167  163  164 1   
   168  163  170 1   
   169  163  171 1   
   170  164  165 1   
   171  164  172 1   
   172  164  173 1   
   173  165  166 1   
   174  165  167 1   
   175  174  175 1   
   176  174  179 1   
   177  175  176 1   
   178  175  177 1   
   179  175  178 1   
   180  181  182 1   
   181  181  183 1   
   182  184  185 1   
   183  184  186 1   
   184  187  188 1   
   185  187  189 1   
@<TRIPOS>SUBSTRUCTURE
     1 MOL         1 TEMP              0 ****  ****    0 ROOT
