@<TRIPOS>MOLECULE
MOL
  175   173     1     0     0
SMALL
resp


@<TRIPOS>ATOM
      1 C1          0.5150    3.8350    5.6210 c3        1 MOL     -0.367374
      2 C2         -0.1070    3.9470    4.2410 c         1 MOL      0.744203
      3 O1          0.5180    4.3030    3.2930 o         1 MOL     -0.536889
      4 H1         -0.1070    3.1970    6.2500 hc        1 MOL      0.084359
      5 H2          1.5110    3.4000    5.5380 hc        1 MOL      0.084359
      6 H3          0.5870    4.8260    6.0690 hc        1 MOL      0.084359
      7 N1         -1.3970    3.5340    4.1240 n         1 MOL     -0.657398
      8 C3         -2.0640    3.3040    2.8210 c3        1 MOL      0.075406
      9 C4         -2.2080    4.5870    2.0190 c         1 MOL      0.612853
     10 O2         -2.3960    5.7170    2.5930 o         1 MOL     -0.587033
     11 C5         -3.4630    2.7530    3.1510 c3        1 MOL     -0.368721
     12 C6         -4.1140    2.4290    1.8120 c         1 MOL      0.727671
     13 O3         -3.4470    1.8260    0.9470 o         1 MOL     -0.654489
     14 O4         -5.2030    2.9850    1.5100 o         1 MOL     -0.654489
     15 H4         -1.9620    3.3110    4.9350 hn        1 MOL      0.338041
     16 H5         -1.5560    2.4960    2.2820 h1        1 MOL      0.093463
     17 H6         -3.9930    3.5070    3.7300 hc        1 MOL      0.080254
     18 H7         -3.4640    1.8390    3.7350 hc        1 MOL      0.080254
     19 N2         -2.2610    4.4680    0.6660 n         1 MOL     -0.443990
     20 C7         -2.4620    5.5350   -0.3070 c3        1 MOL      0.313525
     21 C8         -3.3050    4.9930   -1.4690 c         1 MOL      0.450062
     22 O5         -3.3600    5.7360   -2.4310 o         1 MOL     -0.569523
     23 C9         -1.0280    5.9620   -0.7000 c3        1 MOL     -0.275197
     24 H8         -2.0180    3.5450    0.3440 hn        1 MOL      0.251709
     25 H9         -2.9560    6.4100    0.1250 h1        1 MOL      0.009887
     26 H10        -0.5550    5.1730   -1.2800 hc        1 MOL      0.062452
     27 H11        -1.1360    6.8680   -1.2990 hc        1 MOL      0.062452
     28 H12        -0.4080    6.1630    0.1750 hc        1 MOL      0.062452
     29 N3         -4.0810    3.9070   -1.3840 n         1 MOL     -0.244162
     30 C10        -5.0940    3.4730   -2.4320 c3        1 MOL      0.047153
     31 C11        -6.3020    2.7400   -1.9580 c         1 MOL      0.388191
     32 O6         -7.2970    2.6640   -2.6400 o         1 MOL     -0.582538
     33 C12        -4.3840    2.7090   -3.5330 c3        1 MOL     -0.072285
     34 C13        -3.3490    1.5850   -3.1800 c         1 MOL      0.743878
     35 O7         -2.5700    1.3850   -4.0950 o         1 MOL     -0.700192
     36 O8         -3.3560    0.9550   -2.0980 o         1 MOL     -0.700192
     37 H13        -4.2620    3.6550   -0.4190 hn        1 MOL      0.126608
     38 H14        -5.3990    4.4190   -2.8840 h1        1 MOL      0.045852
     39 H15        -3.8340    3.4920   -4.0540 hc        1 MOL      0.010358
     40 H16        -5.1550    2.2950   -4.1720 hc        1 MOL      0.010358
     41 N4         -6.3710    2.1230   -0.8050 n         1 MOL      0.028295
     42 C14        -7.4420    1.2990   -0.2440 c3        1 MOL     -0.217352
     43 C15        -7.3870   -0.1610   -0.6920 c         1 MOL      0.489840
     44 O9         -8.3480   -0.8900   -0.4840 o         1 MOL     -0.599431
     45 H17        -5.6700    2.3480   -0.1150 hn        1 MOL      0.065718
     46 H18        -8.3680    1.8090   -0.5000 h1        1 MOL      0.098508
     47 H19        -7.3200    1.1980    0.8270 h1        1 MOL      0.098508
     48 N5         -6.2610   -0.6500   -1.2160 n         1 MOL     -0.097549
     49 C16        -6.2870   -2.0390   -1.7950 c3        1 MOL     -0.010763
     50 C17        -6.2290   -3.2170   -0.8290 c         1 MOL      0.479089
     51 O10        -6.6250   -4.2740   -1.2420 o         1 MOL     -0.534977
     52 C18        -5.1680   -2.0840   -2.8670 c3        1 MOL     -0.131271
     53 C19        -3.8000   -2.2250   -2.3260 c         1 MOL      0.482810
     54 N6         -2.9090   -2.3070   -3.2560 n         1 MOL     -0.650790
     55 O11        -3.4730   -2.1190   -1.1390 o         1 MOL     -0.418946
     56 H20        -5.5370   -0.0100   -1.5030 hn        1 MOL      0.044186
     57 H21        -7.2110   -2.0840   -2.3600 h1        1 MOL      0.089208
     58 H22        -5.1810   -1.2290   -3.5450 hc        1 MOL      0.060358
     59 H23        -5.4410   -2.9380   -3.4790 hc        1 MOL      0.060358
     60 H24        -3.1540   -2.1380   -4.2270 hn        1 MOL      0.356860
     61 H25        -1.9520   -2.1980   -2.9830 hn        1 MOL      0.356860
     62 N7         -5.9350   -3.0260    0.4710 n         1 MOL     -0.294698
     63 C20        -5.8660   -4.0940    1.4700 c3        1 MOL     -0.187015
     64 C21        -4.4460   -4.7020    1.7310 c         1 MOL      0.534308
     65 O12        -4.1530   -5.2970    2.7730 o         1 MOL     -0.576909
     66 H26        -5.6980   -2.0890    0.7640 hn        1 MOL      0.241067
     67 H27        -6.4160   -4.9700    1.1190 h1        1 MOL      0.104403
     68 H28        -6.3240   -3.7340    2.3910 h1        1 MOL      0.104403
     69 N8         -3.5640   -4.3630    0.7690 n         1 MOL     -0.381765
     70 C22        -2.1260   -4.7150    0.8470 c3        1 MOL      0.143934
     71 C23        -1.2130   -3.6130    1.2640 c         1 MOL      0.322997
     72 O13        -1.5430   -2.4350    0.9300 o         1 MOL     -0.320268
     73 C24        -1.5460   -5.3320   -0.4970 c3        1 MOL      0.268304
     74 C25        -1.9580   -6.7740   -0.5950 c3        1 MOL     -0.436556
     75 O14        -2.0230   -4.6960   -1.6520 oh        1 MOL     -0.466301
     76 H29        -3.9020   -3.7700    0.0250 hn        1 MOL      0.264045
     77 H30        -2.0010   -5.4340    1.6530 h1        1 MOL      0.048071
     78 H31        -0.4520   -5.3290   -0.5340 h1        1 MOL      0.056481
     79 H32        -2.1860   -3.7660   -1.4880 ho        1 MOL      0.197213
     80 H33        -1.6770   -7.1420   -1.5800 hc        1 MOL      0.106879
     81 H34        -1.5730   -7.3710    0.2290 hc        1 MOL      0.106879
     82 H35        -3.0350   -6.8940   -0.6910 hc        1 MOL      0.106879
     83 N9         -0.0370   -3.9500    1.8900 n         1 MOL     -0.468421
     84 C26         1.1720   -3.1340    1.9440 c3        1 MOL      0.037212
     85 C27         1.8760   -3.3420    0.5760 c         1 MOL      0.347418
     86 O15         2.5480   -4.3640    0.3330 o         1 MOL     -0.545155
     87 C28         2.1560   -3.4270    3.1360 c3        1 MOL      0.041152
     88 C29         1.5070   -3.1970    4.5090 c3        1 MOL      0.145116
     89 C30         3.4360   -2.6420    3.0190 c3        1 MOL      0.017165
     90 C31         2.3060   -3.5070    5.7750 c3        1 MOL     -0.363136
     91 H36         0.0640   -4.9510    1.9100 hn        1 MOL      0.289886
     92 H37         0.8780   -2.0890    2.0590 h1        1 MOL      0.039537
     93 H38         2.4030   -4.4670    2.9420 hc        1 MOL     -0.000282
     94 H39         0.5110   -3.6360    4.5520 hc        1 MOL     -0.013369
     95 H40         1.3970   -2.1150    4.5460 hc        1 MOL     -0.013369
     96 H41         4.0150   -2.7870    3.9250 hc        1 MOL     -0.003675
     97 H42         4.1570   -2.9160    2.2420 hc        1 MOL     -0.003675
     98 H43         3.3240   -1.5640    2.8810 hc        1 MOL     -0.003675
     99 H44         3.1550   -2.8350    5.8930 hc        1 MOL      0.084628
    100 H45         1.6330   -3.2180    6.5840 hc        1 MOL      0.084628
    101 H46         2.5680   -4.5530    5.7200 hc        1 MOL      0.084628
    102 N10         1.7030   -2.3190   -0.2580 n         1 MOL     -0.043457
    103 C32         2.4760   -1.9920   -1.5010 c3        1 MOL     -0.000346
    104 C33         3.9010   -1.4180   -1.1380 c         1 MOL      0.411317
    105 O16         4.0780   -0.8900   -0.0190 o         1 MOL     -0.284074
    106 C34         1.6550   -1.0160   -2.3130 c3        1 MOL     -0.089130
    107 C35         0.2210   -1.5120   -2.5750 c         1 MOL      0.604357
    108 O17        -0.0650   -2.0890   -3.6370 o         1 MOL     -0.627082
    109 O18        -0.6710   -1.2640   -1.6610 o         1 MOL     -0.627082
    110 H47         1.0750   -1.6240    0.0980 hn        1 MOL     -0.004267
    111 H48         2.5390   -2.9000   -2.1000 h1        1 MOL      0.066065
    112 H49         2.1110   -0.7960   -3.2750 hc        1 MOL      0.048735
    113 H50         1.6210   -0.0860   -1.7530 hc        1 MOL      0.048735
    114 N11         4.9430   -1.4870   -1.9930 n         1 MOL     -0.680456
    115 C36         6.3180   -1.1550   -1.6340 c3        1 MOL      0.501674
    116 C37         6.5030    0.3410   -1.3540 c         1 MOL      0.254076
    117 O19         7.1190    0.7120   -0.3290 o         1 MOL     -0.465101
    118 C38         7.2870   -1.7020   -2.7210 c3        1 MOL     -0.171577
    119 C39         8.6620   -1.4540   -2.2480 ca        1 MOL      0.032865
    120 C40         9.4060   -0.3500   -2.6760 ca        1 MOL     -0.141422
    121 C41         9.1770   -2.3760   -1.2740 ca        1 MOL     -0.141422
    122 C42        10.5520   -0.0650   -1.9960 ca        1 MOL     -0.153969
    123 C43        10.3250   -1.9430   -0.5310 ca        1 MOL     -0.153969
    124 C44        10.9540   -0.7570   -0.8530 ca        1 MOL     -0.047843
    125 H51         4.7830   -1.9340   -2.8890 hn        1 MOL      0.319557
    126 H52         6.6240   -1.7450   -0.7760 h1        1 MOL      0.024929
    127 H53         7.1470   -1.0900   -3.6130 hc        1 MOL      0.048488
    128 H54         7.0940   -2.7480   -2.9710 hc        1 MOL      0.048488
    129 H55         9.1260    0.2660   -3.5270 ha        1 MOL      0.125870
    130 H56         8.6690   -3.2920   -1.0280 ha        1 MOL      0.125870
    131 H57        11.0820    0.8420   -2.2610 ha        1 MOL      0.117433
    132 H58        10.6580   -2.5160    0.3240 ha        1 MOL      0.117433
    133 H59        11.8050   -0.4040   -0.2850 ha        1 MOL      0.091823
    134 N12         5.7240    1.2590   -2.0430 n         1 MOL     -0.118548
    135 C45         5.8440    2.6970   -1.7140 c3        1 MOL      0.087153
    136 C46         5.3310    2.9940   -0.3020 c         1 MOL      0.170456
    137 O20         5.6010    4.0470    0.1900 o         1 MOL     -0.497564
    138 C47         5.2610    3.4500   -2.9180 c3        1 MOL     -0.115925
    139 C48         5.5500    2.4360   -3.9770 c3        1 MOL     -0.136522
    140 C49         5.1400    1.1820   -3.3200 c3        1 MOL      0.091863
    141 H60         6.8990    2.9710   -1.7560 h1        1 MOL      0.080898
    142 H61         4.1810    3.5650   -2.8070 hc        1 MOL      0.080276
    143 H62         5.8200    4.3630   -3.0750 hc        1 MOL      0.080276
    144 H63         4.9240    2.4680   -4.8660 hc        1 MOL      0.042989
    145 H64         6.6190    2.4260   -4.1450 hc        1 MOL      0.042989
    146 H65         4.0580    1.0890   -3.2520 h1        1 MOL      0.020561
    147 H66         5.4990    0.3210   -3.8820 h1        1 MOL      0.020561
    148 N13         4.5150    2.1360    0.2720 n         1 MOL      0.170651
    149 C50         4.0680    2.2320    1.6320 c3        1 MOL     -0.113954
    150 C51         5.0320    1.4740    2.6540 c         1 MOL      0.403087
    151 O21         5.0730    1.7310    3.8680 o         1 MOL     -0.544959
    152 C52         2.5940    1.7670    1.7160 c3        1 MOL     -0.019720
    153 C53         1.6760    2.3820    0.6510 c3        1 MOL     -0.142578
    154 C54         0.3890    1.6020    0.5710 c         1 MOL      0.721317
    155 O22        -0.5700    2.0020   -0.1620 o         1 MOL     -0.752535
    156 O23         0.1780    0.4580    1.1210 o         1 MOL     -0.752535
    157 H67         4.2830    1.3510   -0.3030 hn        1 MOL      0.025794
    158 H68         4.1720    3.2760    1.9340 h1        1 MOL      0.090875
    159 H69         2.1520    1.8830    2.7040 hc        1 MOL      0.040462
    160 H70         2.6180    0.6770    1.5860 hc        1 MOL      0.040462
    161 H71         2.1750    2.4990   -0.3120 hc        1 MOL      0.064767
    162 H72         1.4540    3.3520    1.0900 hc        1 MOL      0.064767
    163 N14         5.6910    0.4000    2.1590 n         1 MOL     -0.029724
    164 C55         6.7430   -0.3000    2.9330 c3        1 MOL     -0.161090
    165 H73         7.3680    0.4340    3.4430 h1        1 MOL      0.064500
    166 H74         6.2780   -0.9550    3.6700 h1        1 MOL      0.064500
    167 H75         7.3590   -0.8940    2.2570 h1        1 MOL      0.064500
    168 H76         5.4990    0.0670    1.2250 hn        1 MOL      0.026466
    169 Ca1        -2.1770   -0.1340    0.0250 Ca        1 MOL      1.586614
    170 O24        -4.1900   -0.9050    1.5100 oh        1 MOL     -0.807308
    171 H77        -4.8720   -0.3640    1.8930 ho        1 MOL      0.393199
    172 H78        -3.8720   -1.4390    2.2420 ho        1 MOL      0.393199
    173 O25        -1.5500   -0.6010    2.9580 oh        1 MOL     -0.807308
    174 H79        -1.6870   -0.1790    3.8140 ho        1 MOL      0.393199
    175 H80        -0.6380   -0.3830    2.7340 ho        1 MOL      0.393199
@<TRIPOS>BOND
     1    1    2 1   
     2    1    4 1   
     3    1    5 1   
     4    1    6 1   
     5    2    3 2   
     6    2    7 1   
     7    7    8 1   
     8    7   15 1   
     9    8    9 1   
    10    8   11 1   
    11    8   16 1   
    12    9   10 2   
    13    9   19 1   
    14   11   12 1   
    15   11   17 1   
    16   11   18 1   
    17   12   13 1   
    18   12   14 1   
    19   19   20 1   
    20   19   24 1   
    21   20   21 1   
    22   20   23 1   
    23   20   25 1   
    24   21   22 2   
    25   21   29 1   
    26   23   26 1   
    27   23   27 1   
    28   23   28 1   
    29   29   30 1   
    30   29   37 1   
    31   30   31 1   
    32   30   33 1   
    33   30   38 1   
    34   31   32 2   
    35   31   41 1   
    36   33   34 1   
    37   33   39 1   
    38   33   40 1   
    39   34   35 1   
    40   34   36 1   
    41   41   42 1   
    42   41   45 1   
    43   42   43 1   
    44   42   46 1   
    45   42   47 1   
    46   43   44 2   
    47   43   48 1   
    48   48   49 1   
    49   48   56 1   
    50   49   50 1   
    51   49   52 1   
    52   49   57 1   
    53   50   51 2   
    54   50   62 1   
    55   52   53 1   
    56   52   58 1   
    57   52   59 1   
    58   53   54 1   
    59   53   55 2   
    60   54   60 1   
    61   54   61 1   
    62   62   63 1   
    63   62   66 1   
    64   63   64 1   
    65   63   67 1   
    66   63   68 1   
    67   64   65 2   
    68   64   69 1   
    69   69   70 1   
    70   69   76 1   
    71   70   71 1   
    72   70   73 1   
    73   70   77 1   
    74   71   72 2   
    75   71   83 1   
    76   73   74 1   
    77   73   75 1   
    78   73   78 1   
    79   74   80 1   
    80   74   81 1   
    81   74   82 1   
    82   75   79 1   
    83   83   84 1   
    84   83   91 1   
    85   84   85 1   
    86   84   87 1   
    87   84   92 1   
    88   85   86 2   
    89   85  102 1   
    90   87   88 1   
    91   87   89 1   
    92   87   93 1   
    93   88   90 1   
    94   88   94 1   
    95   88   95 1   
    96   89   96 1   
    97   89   97 1   
    98   89   98 1   
    99   90   99 1   
   100   90  100 1   
   101   90  101 1   
   102  102  103 1   
   103  102  110 1   
   104  103  104 1   
   105  103  106 1   
   106  103  111 1   
   107  104  105 2   
   108  104  114 1   
   109  106  107 1   
   110  106  112 1   
   111  106  113 1   
   112  107  108 1   
   113  107  109 1   
   114  114  115 1   
   115  114  125 1   
   116  115  116 1   
   117  115  118 1   
   118  115  126 1   
   119  116  117 2   
   120  116  134 1   
   121  118  119 1   
   122  118  127 1   
   123  118  128 1   
   124  119  120 ar  
   125  119  121 ar  
   126  120  122 ar  
   127  120  129 1   
   128  121  123 ar  
   129  121  130 1   
   130  122  124 ar  
   131  122  131 1   
   132  123  124 ar  
   133  123  132 1   
   134  124  133 1   
   135  134  135 1   
   136  134  140 1   
   137  135  136 1   
   138  135  138 1   
   139  135  141 1   
   140  136  137 2   
   141  136  148 1   
   142  138  139 1   
   143  138  142 1   
   144  138  143 1   
   145  139  140 1   
   146  139  144 1   
   147  139  145 1   
   148  140  146 1   
   149  140  147 1   
   150  148  149 1   
   151  148  157 1   
   152  149  150 1   
   153  149  152 1   
   154  149  158 1   
   155  150  151 2   
   156  150  163 1   
   157  152  153 1   
   158  152  159 1   
   159  152  160 1   
   160  153  154 1   
   161  153  161 1   
   162  153  162 1   
   163  154  155 1   
   164  154  156 1   
   165  163  164 1   
   166  163  168 1   
   167  164  165 1   
   168  164  166 1   
   169  164  167 1   
   170  170  171 1   
   171  170  172 1   
   172  173  174 1   
   173  173  175 1   
@<TRIPOS>SUBSTRUCTURE
     1 MOL         1 TEMP              0 ****  ****    0 ROOT
