@<TRIPOS>MOLECULE
MOL
  189   185     1     0     0
SMALL
resp


@<TRIPOS>ATOM
      1 C1         -0.6230    1.8940    6.0760 c3        1 MOL     -0.256210
      2 C2         -0.8500    1.5010    4.5960 c         1 MOL      0.779228
      3 O1         -0.0150    1.8300    3.7820 o         1 MOL     -0.643793
      4 H1         -1.1490    2.8240    6.2890 hc        1 MOL      0.065026
      5 H2         -1.0040    1.1060    6.7250 hc        1 MOL      0.065026
      6 H3          0.4440    2.0310    6.2560 hc        1 MOL      0.065026
      7 N1         -2.0240    0.9060    4.2110 n         1 MOL     -0.735906
      8 C3         -2.5680    0.9450    2.8650 c3        1 MOL      0.382127
      9 C4         -3.0300    2.3770    2.3890 c         1 MOL      0.377421
     10 O2         -4.1280    2.8430    2.7600 o         1 MOL     -0.527847
     11 C5         -3.7140   -0.0880    2.7940 c3        1 MOL     -0.310989
     12 C6         -4.3250   -0.1620    1.4500 c         1 MOL      0.831447
     13 O3         -5.3430   -0.8050    1.3760 o         1 MOL     -0.654610
     14 O4         -3.8190    0.4150    0.4350 o         1 MOL     -0.654610
     15 H4         -2.6800    0.5830    4.9160 hn        1 MOL      0.346281
     16 H5         -1.7960    0.6430    2.1630 h1        1 MOL     -0.064639
     17 H6         -4.4290    0.1250    3.5840 hc        1 MOL      0.056133
     18 H7         -3.1440   -1.0140    2.9420 hc        1 MOL      0.056133
     19 N2         -2.1440    3.1580    1.7630 n         1 MOL     -0.118813
     20 C7         -2.3540    4.6020    1.5900 c3        1 MOL     -0.338030
     21 C8         -3.3750    4.9530    0.5200 c         1 MOL      0.600012
     22 O5         -3.8810    6.0630    0.4610 o         1 MOL     -0.590784
     23 C9         -0.9780    5.3460    1.4570 c3        1 MOL     -0.084453
     24 C10        -0.2250    5.0890    0.1670 c3        1 MOL      0.119856
     25 C11         1.2660    5.3190    0.2280 c3        1 MOL     -0.011918
     26 C12         1.7700    6.7050    0.3730 c3        1 MOL      0.039761
     27 N3          1.5730    7.5320   -0.8370 n4        1 MOL     -0.424721
     28 H8         -1.3300    2.7270    1.3580 hn        1 MOL      0.257638
     29 H9         -2.8150    4.9730    2.5020 h1        1 MOL      0.175435
     30 H10        -0.3430    5.0540    2.2890 hc        1 MOL      0.059578
     31 H11        -1.1710    6.4040    1.6470 hc        1 MOL      0.059578
     32 H12        -0.6620    5.6730   -0.6500 hc        1 MOL     -0.023381
     33 H13        -0.3700    4.0460   -0.0940 hc        1 MOL     -0.023381
     34 H14         1.7130    4.9300   -0.6850 hc        1 MOL      0.021981
     35 H15         1.6600    4.6900    1.0300 hc        1 MOL      0.021981
     36 H16         2.8350    6.6050    0.5830 hx        1 MOL      0.078518
     37 H17         1.3350    7.2190    1.2180 hx        1 MOL      0.078518
     38 H18         1.9340    6.9950   -1.6210 hn        1 MOL      0.344674
     39 H19         0.6050    7.7800   -0.8940 hn        1 MOL      0.344674
     40 H20         2.1350    8.3770   -0.8380 hn        1 MOL      0.344674
     41 N4         -3.9210    3.9710   -0.2340 n         1 MOL     -0.239183
     42 C13        -4.9250    4.2420   -1.2920 c3        1 MOL     -0.063223
     43 C14        -6.2060    3.3650   -1.1880 c         1 MOL      0.369815
     44 O6         -7.1440    3.5060   -1.9670 o         1 MOL     -0.479473
     45 C15        -4.2200    4.0930   -2.6370 c3        1 MOL      0.010265
     46 C16        -3.2530    2.9010   -2.7740 c         1 MOL      0.729683
     47 O7         -2.2730    2.9680   -3.5720 o         1 MOL     -0.737729
     48 O8         -3.3120    1.8980   -1.9680 o         1 MOL     -0.737729
     49 H21        -3.6190    3.0250   -0.0280 hn        1 MOL      0.097810
     50 H22        -5.2230    5.2910   -1.3160 h1        1 MOL      0.121651
     51 H23        -3.5570    4.9520   -2.6960 hc        1 MOL     -0.001533
     52 H24        -4.8870    4.2100   -3.4940 hc        1 MOL     -0.001533
     53 N5         -6.2800    2.4330   -0.1920 n         1 MOL     -0.085207
     54 C17        -7.4360    1.5870    0.1390 c3        1 MOL     -0.258064
     55 C18        -7.6960    0.5940   -0.9620 c         1 MOL      0.550956
     56 O9         -8.7950    0.5870   -1.5590 o         1 MOL     -0.576815
     57 H25        -5.6050    2.3700    0.5550 hn        1 MOL      0.158771
     58 H26        -8.3410    2.1530    0.3630 h1        1 MOL      0.109563
     59 H27        -7.1340    1.0290    1.0210 h1        1 MOL      0.109563
     60 N6         -6.7250   -0.2840   -1.1480 n         1 MOL     -0.208257
     61 C19        -6.7800   -1.5000   -2.0750 c3        1 MOL      0.137910
     62 C20        -6.5790   -2.8360   -1.3480 c         1 MOL      0.478537
     63 O10        -6.3850   -3.8450   -2.0320 o         1 MOL     -0.536478
     64 C21        -5.8120   -1.3340   -3.1860 c3        1 MOL     -0.303799
     65 C22        -4.3650   -1.3640   -2.7880 c         1 MOL      0.863261
     66 O11        -3.8930   -1.9530   -1.7750 o         1 MOL     -0.726911
     67 O12        -3.4870   -0.7800   -3.4460 o         1 MOL     -0.726911
     68 H28        -5.8650   -0.1890   -0.6310 hn        1 MOL      0.049652
     69 H29        -7.8320   -1.5210   -2.3440 h1        1 MOL      0.049345
     70 H30        -6.0140   -0.4140   -3.7320 hc        1 MOL      0.091402
     71 H31        -5.8140   -2.1520   -3.9030 hc        1 MOL      0.091402
     72 N7         -6.6730   -2.8390   -0.0200 n         1 MOL     -0.491482
     73 C23        -6.4220   -3.9830    0.8750 c3        1 MOL      0.257106
     74 C24        -5.1060   -4.7380    0.7710 c         1 MOL      0.368222
     75 O13        -5.1130   -5.8970    1.1600 o         1 MOL     -0.528894
     76 H32        -6.8370   -1.9730    0.4660 hn        1 MOL      0.278728
     77 H33        -7.2410   -4.6830    0.9850 h1        1 MOL      0.004537
     78 H34        -6.3830   -3.5460    1.8680 h1        1 MOL      0.004537
     79 N8         -4.0050   -4.0580    0.3820 n         1 MOL     -0.027616
     80 C25        -2.6010   -4.6610    0.3910 c3        1 MOL     -0.493634
     81 C26        -1.4900   -3.6510    0.5680 c         1 MOL      0.917619
     82 O14        -1.6500   -2.4890    0.1480 o         1 MOL     -0.687321
     83 C27        -2.3130   -5.4040   -0.9660 c3        1 MOL      0.497591
     84 C28        -3.1320   -6.6970   -1.2300 c3        1 MOL     -0.554271
     85 O15        -2.5240   -4.5540   -2.0580 oh        1 MOL     -0.577450
     86 H35        -4.1250   -3.0710    0.2690 hn        1 MOL      0.109901
     87 H36        -2.5200   -5.3680    1.2150 h1        1 MOL      0.149817
     88 H37        -1.2490   -5.6190   -0.9990 h1        1 MOL     -0.026102
     89 H38        -2.8200   -3.7470   -1.6390 ho        1 MOL      0.374479
     90 H39        -2.5650   -7.3590   -1.8880 hc        1 MOL      0.149820
     91 H40        -3.4270   -7.2190   -0.3300 hc        1 MOL      0.149820
     92 H41        -4.1320   -6.4490   -1.5820 hc        1 MOL      0.149820
     93 N9         -0.3050   -4.0090    1.0740 n         1 MOL     -0.720251
     94 C29         0.7890   -3.1160    1.3200 c3        1 MOL      0.061277
     95 C30         1.9350   -3.4950    0.2900 c         1 MOL      0.521950
     96 O16         2.3410   -4.6370    0.0950 o         1 MOL     -0.561335
     97 C31         1.2650   -3.3830    2.7980 c3        1 MOL      0.173361
     98 C32         0.2650   -2.7790    3.7250 c3        1 MOL      0.063077
     99 C33         2.6530   -2.9390    2.9870 c3        1 MOL     -0.219988
    100 C34         0.5110   -3.0030    5.2350 c3        1 MOL     -0.124031
    101 H42        -0.1390   -4.9790    1.2840 hn        1 MOL      0.329936
    102 H43         0.5890   -2.0570    1.1970 h1        1 MOL      0.072970
    103 H44         1.2830   -4.4650    2.9380 hc        1 MOL      0.000095
    104 H45        -0.7210   -3.1570    3.4830 hc        1 MOL     -0.007071
    105 H46         0.3320   -1.7000    3.5540 hc        1 MOL     -0.007071
    106 H47         3.3150   -3.3890    2.2410 hc        1 MOL      0.014969
    107 H48         2.7620   -1.8600    2.8420 hc        1 MOL      0.014969
    108 H49         2.9670   -3.1570    4.0120 hc        1 MOL      0.014969
    109 H50        -0.3310   -2.5980    5.7990 hc        1 MOL      0.028600
    110 H51         0.5800   -4.0490    5.5430 hc        1 MOL      0.028600
    111 H52         1.3620   -2.3660    5.4910 hc        1 MOL      0.028600
    112 N10         2.4120   -2.4620   -0.3550 n         1 MOL     -0.097409
    113 C35         3.5930   -2.4210   -1.2190 c3        1 MOL     -0.125977
    114 C36         4.8380   -2.1580   -0.3920 c         1 MOL      0.321823
    115 O17         4.8550   -1.8550    0.7790 o         1 MOL     -0.232927
    116 C37         3.5130   -1.3240   -2.2940 c3        1 MOL      0.035457
    117 C38         2.4920   -1.4780   -3.3750 c3        1 MOL     -0.376128
    118 O18         3.3320   -0.0030   -1.7390 oh        1 MOL     -0.547582
    119 H53         1.9860   -1.5530   -0.3140 hn        1 MOL      0.218813
    120 H54         3.6750   -3.3540   -1.7650 h1        1 MOL      0.101222
    121 H55         4.4600   -1.2140   -2.8230 h1        1 MOL      0.084426
    122 H56         2.4030    0.0570   -1.5090 ho        1 MOL      0.371207
    123 H57         2.7650   -0.8760   -4.2470 hc        1 MOL      0.124174
    124 H58         2.5110   -2.4610   -3.8390 hc        1 MOL      0.124174
    125 H59         1.5180   -1.2710   -2.9290 hc        1 MOL      0.124174
    126 N11         6.0670   -2.3450   -0.9680 n         1 MOL     -0.300275
    127 C39         7.3400   -2.0190   -0.2690 c3        1 MOL     -0.131693
    128 C40         7.3730   -0.5390    0.1920 c         1 MOL      0.255880
    129 O19         7.8090   -0.2640    1.2930 o         1 MOL     -0.436292
    130 C41         8.5970   -2.1600   -1.0730 c3        1 MOL      0.302384
    131 C42         8.8000   -3.6080   -1.2840 c3        1 MOL     -0.455375
    132 O20         8.4790   -1.6450   -2.3560 oh        1 MOL     -0.642008
    133 H60         6.0920   -2.7680   -1.8930 hn        1 MOL      0.273914
    134 H61         7.2560   -2.6960    0.5760 h1        1 MOL      0.156958
    135 H62         9.4170   -1.7660   -0.4690 h1        1 MOL      0.080227
    136 H63         9.4030   -1.6650   -2.6160 ho        1 MOL      0.370996
    137 H64         9.7880   -3.7610   -1.6980 hc        1 MOL      0.130604
    138 H65         8.7740   -4.2170   -0.3710 hc        1 MOL      0.130604
    139 H66         7.9490   -3.8950   -1.9010 hc        1 MOL      0.130604
    140 N12         6.8540    0.3620   -0.6350 n         1 MOL     -0.162914
    141 C43         6.6970    1.8270   -0.3180 c3        1 MOL      0.039340
    142 C44         5.8230    2.0290    0.8860 c         1 MOL      0.256615
    143 O21         6.0800    2.9160    1.7250 o         1 MOL     -0.499566
    144 C45         6.1110    2.5360   -1.5460 c3        1 MOL     -0.205059
    145 C46         6.5290    2.1110   -2.9970 c3        1 MOL      0.029468
    146 C47         8.0160    2.4540   -3.2790 c3        1 MOL      0.078687
    147 C48         8.3240    1.7870   -4.6640 c3        1 MOL     -0.233724
    148 N13         8.4580    0.3790   -4.5700 n4        1 MOL     -0.043466
    149 H67         6.6850    0.1070   -1.6030 hn        1 MOL      0.125445
    150 H68         7.6460    2.3210   -0.0810 h1        1 MOL      0.083603
    151 H69         6.3190    3.5830   -1.3570 hc        1 MOL      0.061707
    152 H70         5.0320    2.3400   -1.5170 hc        1 MOL      0.061707
    153 H71         5.9000    2.7200   -3.6370 hc        1 MOL      0.033923
    154 H72         6.2860    1.0770   -3.2310 hc        1 MOL      0.033923
    155 H73         8.6510    2.1620   -2.4470 hc        1 MOL      0.036739
    156 H74         8.2070    3.5240   -3.3240 hc        1 MOL      0.036739
    157 H75         9.2940    2.1930   -4.9580 hx        1 MOL      0.124389
    158 H76         7.5460    2.1040   -5.3620 hx        1 MOL      0.124389
    159 H77         9.1580    0.0300   -3.9320 hn        1 MOL      0.225318
    160 H78         7.5730   -0.0700   -4.4170 hn        1 MOL      0.225318
    161 H79         8.8560   -0.0190   -5.4090 hn        1 MOL      0.225318
    162 N14         4.8180    1.2260    1.0140 n         1 MOL     -0.020319
    163 C49         3.9160    1.2310    2.1730 c3        1 MOL     -0.151380
    164 C50         4.5350    0.4780    3.3150 c         1 MOL      0.505435
    165 O22         4.3520    0.9130    4.4620 o         1 MOL     -0.567086
    166 C51         2.5820    0.5770    1.7680 c3        1 MOL      0.141587
    167 C52         1.7270    1.6270    1.0320 c3        1 MOL     -0.142816
    168 C53         0.5620    0.9220    0.2030 c         1 MOL      0.639041
    169 O23        -0.6170    1.3160    0.2420 o         1 MOL     -0.669240
    170 O24         0.8730   -0.0000   -0.5970 o         1 MOL     -0.669240
    171 H80         4.6280    0.4740    0.3640 hn        1 MOL      0.214549
    172 H81         3.7640    2.2620    2.5100 h1        1 MOL      0.099575
    173 H82         2.1380    0.2060    2.7000 hc        1 MOL      0.041849
    174 H83         2.8050   -0.2790    1.1380 hc        1 MOL      0.041849
    175 H84         2.3660    2.1790    0.3350 hc        1 MOL      0.023788
    176 H85         1.3610    2.3710    1.7340 hc        1 MOL      0.023788
    177 N15         5.3160   -0.5760    3.1050 n         1 MOL     -0.063311
    178 C54         5.9170   -1.2840    4.2040 c3        1 MOL     -0.384935
    179 H86         6.7870   -1.8360    3.8470 h1        1 MOL      0.132975
    180 H87         6.2280   -0.5720    4.9690 h1        1 MOL      0.132975
    181 H88         5.1940   -1.9800    4.6270 h1        1 MOL      0.132975
    182 H89         5.3680   -0.8650    2.1330 hn        1 MOL      0.081209
    183 Ca1        -1.9010   -0.1450   -1.3390 Ca        1 MOL      1.767184
    184 O25        -0.3850    1.2680   -3.1060 oh        1 MOL     -0.881662
    185 H90         0.2530    1.4040   -3.8040 ho        1 MOL      0.405191
    186 H91        -1.0820    1.9030   -3.3000 ho        1 MOL      0.405191
    187 O26        -0.6180   -2.1730   -2.5780 oh        1 MOL     -0.881662
    188 H92        -0.8790   -2.1470   -3.5060 ho        1 MOL      0.405191
    189 H93        -0.6670   -3.1040   -2.3440 ho        1 MOL      0.405191
@<TRIPOS>BOND
     1    1    2 1   
     2    1    4 1   
     3    1    5 1   
     4    1    6 1   
     5    2    3 2   
     6    2    7 1   
     7    7    8 1   
     8    7   15 1   
     9    8    9 1   
    10    8   11 1   
    11    8   16 1   
    12    9   10 2   
    13    9   19 1   
    14   11   12 1   
    15   11   17 1   
    16   11   18 1   
    17   12   13 1   
    18   12   14 1   
    19   19   20 1   
    20   19   28 1   
    21   20   21 1   
    22   20   23 1   
    23   20   29 1   
    24   21   22 2   
    25   21   41 1   
    26   23   24 1   
    27   23   30 1   
    28   23   31 1   
    29   24   25 1   
    30   24   32 1   
    31   24   33 1   
    32   25   26 1   
    33   25   34 1   
    34   25   35 1   
    35   26   27 1   
    36   26   36 1   
    37   26   37 1   
    38   27   38 1   
    39   27   39 1   
    40   27   40 1   
    41   41   42 1   
    42   41   49 1   
    43   42   43 1   
    44   42   45 1   
    45   42   50 1   
    46   43   44 2   
    47   43   53 1   
    48   45   46 1   
    49   45   51 1   
    50   45   52 1   
    51   46   47 1   
    52   46   48 1   
    53   53   54 1   
    54   53   57 1   
    55   54   55 1   
    56   54   58 1   
    57   54   59 1   
    58   55   56 2   
    59   55   60 1   
    60   60   61 1   
    61   60   68 1   
    62   61   62 1   
    63   61   64 1   
    64   61   69 1   
    65   62   63 2   
    66   62   72 1   
    67   64   65 1   
    68   64   70 1   
    69   64   71 1   
    70   65   66 1   
    71   65   67 1   
    72   72   73 1   
    73   72   76 1   
    74   73   74 1   
    75   73   77 1   
    76   73   78 1   
    77   74   75 2   
    78   74   79 1   
    79   79   80 1   
    80   79   86 1   
    81   80   81 1   
    82   80   83 1   
    83   80   87 1   
    84   81   82 2   
    85   81   93 1   
    86   83   84 1   
    87   83   85 1   
    88   83   88 1   
    89   84   90 1   
    90   84   91 1   
    91   84   92 1   
    92   85   89 1   
    93   93   94 1   
    94   93  101 1   
    95   94   95 1   
    96   94   97 1   
    97   94  102 1   
    98   95   96 2   
    99   95  112 1   
   100   97   98 1   
   101   97   99 1   
   102   97  103 1   
   103   98  100 1   
   104   98  104 1   
   105   98  105 1   
   106   99  106 1   
   107   99  107 1   
   108   99  108 1   
   109  100  109 1   
   110  100  110 1   
   111  100  111 1   
   112  112  113 1   
   113  112  119 1   
   114  113  114 1   
   115  113  116 1   
   116  113  120 1   
   117  114  115 2   
   118  114  126 1   
   119  116  117 1   
   120  116  118 1   
   121  116  121 1   
   122  117  123 1   
   123  117  124 1   
   124  117  125 1   
   125  118  122 1   
   126  126  127 1   
   127  126  133 1   
   128  127  128 1   
   129  127  130 1   
   130  127  134 1   
   131  128  129 2   
   132  128  140 1   
   133  130  131 1   
   134  130  132 1   
   135  130  135 1   
   136  131  137 1   
   137  131  138 1   
   138  131  139 1   
   139  132  136 1   
   140  140  141 1   
   141  140  149 1   
   142  141  142 1   
   143  141  144 1   
   144  141  150 1   
   145  142  143 2   
   146  142  162 1   
   147  144  145 1   
   148  144  151 1   
   149  144  152 1   
   150  145  146 1   
   151  145  153 1   
   152  145  154 1   
   153  146  147 1   
   154  146  155 1   
   155  146  156 1   
   156  147  148 1   
   157  147  157 1   
   158  147  158 1   
   159  148  159 1   
   160  148  160 1   
   161  148  161 1   
   162  162  163 1   
   163  162  171 1   
   164  163  164 1   
   165  163  166 1   
   166  163  172 1   
   167  164  165 2   
   168  164  177 1   
   169  166  167 1   
   170  166  173 1   
   171  166  174 1   
   172  167  168 1   
   173  167  175 1   
   174  167  176 1   
   175  168  169 1   
   176  168  170 1   
   177  177  178 1   
   178  177  182 1   
   179  178  179 1   
   180  178  180 1   
   181  178  181 1   
   182  184  185 1   
   183  184  186 1   
   184  187  188 1   
   185  187  189 1   
@<TRIPOS>SUBSTRUCTURE
     1 MOL         1 TEMP              0 ****  ****    0 ROOT
