@<TRIPOS>MOLECULE
MOL
  183   181     1     0     0
SMALL
resp


@<TRIPOS>ATOM
      1 C1          0.7560   -2.8830    6.2860 c3        1 MOL     -0.272159
      2 C2          1.2500   -2.7980    4.7730 c         1 MOL      0.778308
      3 O1          0.4990   -3.2060    3.8880 o         1 MOL     -0.599958
      4 H1          1.0410   -1.9720    6.8120 hc        1 MOL      0.059306
      5 H2         -0.3290   -2.9900    6.3090 hc        1 MOL      0.059306
      6 H3          1.2170   -3.7420    6.7720 hc        1 MOL      0.059306
      7 N1          2.4290   -2.2500    4.5260 n         1 MOL     -0.692269
      8 C3          2.9100   -1.9860    3.1790 c3        1 MOL      0.027327
      9 C4          3.3970   -3.2070    2.5070 c         1 MOL      0.641618
     10 O2          4.1290   -4.0060    3.1320 o         1 MOL     -0.582378
     11 C5          3.9930   -0.9430    3.1950 c3        1 MOL     -0.006265
     12 C6          4.3530   -0.4070    1.7810 c         1 MOL      0.738748
     13 O3          5.4330    0.1670    1.6260 o         1 MOL     -0.732269
     14 O4          3.6220   -0.6330    0.7930 o         1 MOL     -0.732269
     15 H4          3.0680   -2.1250    5.2970 hn        1 MOL      0.354130
     16 H5          2.1160   -1.5330    2.5840 h1        1 MOL      0.039258
     17 H6          4.8760   -1.4070    3.6340 hc        1 MOL     -0.003142
     18 H7          3.7280   -0.0870    3.8150 hc        1 MOL     -0.003142
     19 N2          2.9460   -3.4740    1.2450 n         1 MOL     -0.335536
     20 C7          3.0710   -4.8540    0.7000 c3        1 MOL     -0.046223
     21 C8          4.2040   -4.8430   -0.3780 c         1 MOL      0.441306
     22 O5          5.1130   -5.6730   -0.4010 o         1 MOL     -0.566774
     23 C9          1.6920   -5.3360    0.0590 c3        1 MOL      0.123353
     24 C10         0.6650   -5.4210    1.2090 c3        1 MOL      0.046495
     25 C11         1.8130   -6.6560   -0.7880 c3        1 MOL     -0.208023
     26 C12        -0.7090   -5.9800    0.9450 c3        1 MOL     -0.237504
     27 H8          2.2380   -2.9300    0.7790 hn        1 MOL      0.151387
     28 H9          3.3820   -5.5470    1.4770 h1        1 MOL      0.076129
     29 H10         1.2830   -4.6490   -0.6810 hc        1 MOL      0.058908
     30 H11         0.5020   -4.3860    1.5170 hc        1 MOL      0.014226
     31 H12         1.1140   -5.9150    2.0680 hc        1 MOL      0.014226
     32 H13         2.3150   -7.3970   -0.1640 hc        1 MOL      0.034245
     33 H14         0.8900   -7.1310   -1.0950 hc        1 MOL      0.034245
     34 H15         2.4710   -6.3950   -1.6200 hc        1 MOL      0.034245
     35 H16        -1.0990   -5.7090   -0.0410 hc        1 MOL      0.054118
     36 H17        -0.5660   -7.0450    0.7680 hc        1 MOL      0.054118
     37 H18        -1.4480   -5.7410    1.6990 hc        1 MOL      0.054118
     38 N3          4.2550   -3.8610   -1.3120 n         1 MOL     -0.155032
     39 C13         5.2260   -3.8370   -2.4350 c3        1 MOL     -0.153502
     40 C14         6.5360   -3.1150   -2.1220 c         1 MOL      0.457743
     41 O6          7.5440   -3.1470   -2.8140 o         1 MOL     -0.523408
     42 C15         4.4750   -3.2580   -3.6260 c3        1 MOL     -0.171952
     43 C16         3.6870   -1.9680   -3.4150 c         1 MOL      0.740752
     44 O7          2.4680   -1.9380   -3.7700 o         1 MOL     -0.720906
     45 O8          4.1500   -1.0430   -2.6840 o         1 MOL     -0.720906
     46 H19         3.4930   -3.1880   -1.3120 hn        1 MOL      0.184433
     47 H20         5.6250   -4.8250   -2.6530 h1        1 MOL      0.143244
     48 H21         3.8930   -3.9250   -4.2450 hc        1 MOL      0.049480
     49 H22         5.2110   -3.0390   -4.4010 hc        1 MOL      0.049480
     50 N4          6.6360   -2.5050   -0.9100 n         1 MOL     -0.196315
     51 C17         7.7740   -1.6570   -0.4940 c3        1 MOL     -0.364513
     52 C18         8.0300   -0.3630   -1.2420 c         1 MOL      0.546757
     53 O9          9.1890    0.0580   -1.3670 o         1 MOL     -0.606336
     54 H23         5.8660   -2.4550   -0.2660 hn        1 MOL      0.222286
     55 H24         8.6820   -2.2550   -0.6110 h1        1 MOL      0.147924
     56 H25         7.7030   -1.3670    0.5530 h1        1 MOL      0.147924
     57 N5          7.0070    0.2110   -1.7910 n         1 MOL     -0.107596
     58 C19         7.1130    1.5300   -2.3420 c3        1 MOL      0.030606
     59 C20         7.1260    2.6570   -1.2220 c         1 MOL      0.378023
     60 O10         7.5150    3.8120   -1.4940 o         1 MOL     -0.555401
     61 C21         6.0770    1.9100   -3.4420 c3        1 MOL     -0.255227
     62 C22         4.6060    1.8040   -2.9520 c         1 MOL      0.775792
     63 O11         4.3540    1.7340   -1.7530 o         1 MOL     -0.741631
     64 O12         3.6170    1.8320   -3.7800 o         1 MOL     -0.741631
     65 H26         6.0600   -0.0690   -1.5970 hn        1 MOL      0.097198
     66 H27         8.1130    1.7040   -2.7520 h1        1 MOL      0.066634
     67 H28         6.1800    1.1220   -4.1930 hc        1 MOL      0.065469
     68 H29         6.2720    2.8800   -3.9080 hc        1 MOL      0.065469
     69 N6          6.6570    2.3800    0.0040 n         1 MOL     -0.151099
     70 C23         6.6270    3.2240    1.1800 c3        1 MOL     -0.235340
     71 C24         5.4070    4.0600    1.4950 c         1 MOL      0.599294
     72 O13         5.5020    4.8280    2.5170 o         1 MOL     -0.611120
     73 H30         6.3740    1.4230    0.1430 hn        1 MOL      0.223236
     74 H31         7.4460    3.9420    1.1180 h1        1 MOL      0.107860
     75 H32         6.7320    2.5750    2.0610 h1        1 MOL      0.107860
     76 N7          4.3150    3.9020    0.7560 n         1 MOL     -0.416476
     77 C25         2.9610    4.2840    1.2730 c3        1 MOL      0.253373
     78 C26         1.9490    3.2110    1.1790 c         1 MOL      0.606150
     79 O14         2.0400    2.4330    0.2410 o         1 MOL     -0.672710
     80 C27         2.3250    5.4910    0.5710 c3        1 MOL     -0.288462
     81 C28         3.1510    6.7920    0.7670 c3        1 MOL     -0.178702
     82 C29         2.4160    8.0310    0.3810 c         1 MOL      0.691267
     83 N8          2.3580    8.3100   -0.8600 n         1 MOL     -0.783641
     84 O15         2.0810    8.8850    1.2210 o         1 MOL     -0.608154
     85 H33         4.2720    3.1820    0.0490 hn        1 MOL      0.301903
     86 H34         3.0810    4.4690    2.3440 h1        1 MOL      0.002390
     87 H35         1.3420    5.7300    0.9680 hc        1 MOL      0.101137
     88 H36         2.3860    5.1580   -0.4660 hc        1 MOL      0.101137
     89 H37         4.0470    6.8340    0.1570 hc        1 MOL      0.081740
     90 H38         3.3690    6.9050    1.8290 hc        1 MOL      0.081740
     91 H39         2.7070    7.6750   -1.5760 hn        1 MOL      0.352631
     92 H40         1.8780    9.1260   -1.2050 hn        1 MOL      0.352631
     93 N9          1.0560    3.1450    2.1640 n         1 MOL     -0.534477
     94 C30         0.0230    2.1200    2.2750 c3        1 MOL      0.051506
     95 C31        -1.1800    2.6090    1.4870 c         1 MOL      0.395732
     96 O16        -1.7080    3.6940    1.6690 o         1 MOL     -0.579816
     97 C32        -0.2760    1.8660    3.7030 c3        1 MOL      0.269031
     98 C33        -1.5790    0.9860    3.9190 c3        1 MOL     -0.237375
     99 C34         0.8640    1.0690    4.4000 c3        1 MOL     -0.237375
    100 H41         1.1520    3.7970    2.9350 hn        1 MOL      0.303134
    101 H42         0.4310    1.1900    1.8790 h1        1 MOL      0.068617
    102 H43        -0.4210    2.7670    4.2970 hc        1 MOL     -0.015465
    103 H44        -1.8880    0.7680    4.9390 hc        1 MOL      0.043413
    104 H45        -2.4360    1.5840    3.6320 hc        1 MOL      0.043413
    105 H46        -1.6020    0.1140    3.2650 hc        1 MOL      0.043413
    106 H47         0.6570    0.9690    5.4600 hc        1 MOL      0.043413
    107 H48         0.9400    0.1080    3.9050 hc        1 MOL      0.043413
    108 H49         1.7280    1.7220    4.2280 hc        1 MOL      0.043413
    109 N10        -1.6100    1.8040    0.5420 n         1 MOL     -0.010053
    110 C35        -2.7170    2.1540   -0.4140 c3        1 MOL     -0.017651
    111 C36        -4.0250    1.8060    0.2250 c         1 MOL      0.309555
    112 O17        -4.1230    0.9920    1.1640 o         1 MOL     -0.354759
    113 C37        -2.4990    1.4260   -1.6160 c3        1 MOL     -0.136622
    114 C38        -3.4310    1.8960   -2.7110 c         1 MOL      0.497020
    115 N11        -3.3110    3.1210   -3.1280 n         1 MOL     -0.685165
    116 O18        -4.3580    1.2470   -3.1320 o         1 MOL     -0.465049
    117 H50        -1.0480    1.0020    0.3150 hn        1 MOL      0.105001
    118 H51        -2.8450    3.2220   -0.5880 h1        1 MOL      0.068175
    119 H52        -2.5180    0.3390   -1.6050 hc        1 MOL      0.087357
    120 H53        -1.5190    1.7520   -1.9770 hc        1 MOL      0.087357
    121 H54        -2.5750    3.7980   -2.9910 hn        1 MOL      0.333642
    122 H55        -3.8150    3.3180   -3.9780 hn        1 MOL      0.333642
    123 N12        -5.1520    2.4250   -0.2370 n         1 MOL     -0.285816
    124 C39        -6.5160    1.9520    0.0850 c3        1 MOL     -0.012448
    125 C40        -6.7420    0.4050   -0.1380 c         1 MOL      0.685306
    126 O19        -7.2330   -0.2980    0.7450 o         1 MOL     -0.534244
    127 C41        -7.5930    2.8030   -0.6790 c3        1 MOL     -0.124099
    128 C42        -8.9100    2.2790   -0.3070 ca        1 MOL     -0.070317
    129 C43        -9.5460    2.6690    0.8800 ca        1 MOL     -0.030180
    130 C44        -9.6030    1.4450   -1.1810 ca        1 MOL     -0.030180
    131 C45       -10.8250    2.2250    1.1900 ca        1 MOL     -0.413199
    132 C46       -10.7720    0.8250   -0.7950 ca        1 MOL     -0.413199
    133 C47       -11.4080    1.1940    0.4480 ca        1 MOL      0.482841
    134 O20       -12.4830    0.5050    0.8960 oh        1 MOL     -0.584483
    135 H56        -4.9750    3.1440   -0.9220 hn        1 MOL      0.205011
    136 H57        -6.5710    2.0950    1.1640 h1        1 MOL      0.039956
    137 H58        -7.3540    2.7630   -1.7390 hc        1 MOL      0.062699
    138 H59        -7.5370    3.8550   -0.4060 hc        1 MOL      0.062699
    139 H60        -9.0330    3.4320    1.4400 ha        1 MOL      0.101258
    140 H61        -9.2340    1.2320   -2.1680 ha        1 MOL      0.101258
    141 H62       -11.2440    2.3420    2.1810 ha        1 MOL      0.179069
    142 H63       -11.2100    0.0080   -1.3470 ha        1 MOL      0.179069
    143 H64       -12.8030   -0.0430    0.1850 ho        1 MOL      0.420833
    144 N13        -6.2600   -0.1090   -1.2890 n         1 MOL     -0.042932
    145 C48        -6.2710   -1.5580   -1.5040 c3        1 MOL     -0.275497
    146 C49        -5.4050   -2.4330   -0.5500 c         1 MOL      0.411997
    147 O21        -5.6980   -3.6280   -0.2330 o         1 MOL     -0.500342
    148 C50        -5.8890   -1.8000   -2.9370 c3        1 MOL      0.003974
    149 C51        -6.9310   -1.2500   -3.9220 c3        1 MOL     -0.118106
    150 C52        -8.3140   -1.9060   -3.9890 c         1 MOL      0.786192
    151 O22        -9.1850   -1.4470   -4.7150 o         1 MOL     -0.751627
    152 O23        -8.5720   -2.9490   -3.2980 o         1 MOL     -0.751627
    153 H65        -5.7350    0.4650   -1.9290 hn        1 MOL      0.121163
    154 H66        -7.3230   -1.8370   -1.4280 h1        1 MOL      0.140357
    155 H67        -5.8770   -2.8910   -3.0300 hc        1 MOL      0.030696
    156 H68        -4.9240   -1.3620   -3.1990 hc        1 MOL      0.030696
    157 H69        -6.6170   -1.3840   -4.9650 hc        1 MOL     -0.028745
    158 H70        -7.0190   -0.1860   -3.7170 hc        1 MOL     -0.028745
    159 N14        -4.2940   -1.9180   -0.0360 n         1 MOL     -0.226762
    160 C53        -3.5030   -2.6180    0.9850 c3        1 MOL     -0.101573
    161 C54        -4.1330   -2.4570    2.4280 c         1 MOL      0.440613
    162 O24        -3.8990   -3.2630    3.3070 o         1 MOL     -0.571165
    163 C55        -2.0170   -2.0920    1.0660 c3        1 MOL      0.051639
    164 C56        -1.2760   -2.2870   -0.2730 c3        1 MOL      0.099980
    165 C57         0.1020   -1.6330   -0.2570 c         1 MOL      0.777608
    166 O25         1.1970   -2.1970   -0.5860 o         1 MOL     -0.783534
    167 O26         0.0760   -0.3830   -0.2410 o         1 MOL     -0.783534
    168 H71        -4.1370   -0.9480   -0.2640 hn        1 MOL      0.141046
    169 H72        -3.3810   -3.6720    0.7350 h1        1 MOL      0.117618
    170 H73        -1.4600   -2.6560    1.8120 hc        1 MOL      0.044114
    171 H74        -2.0210   -1.0420    1.3520 hc        1 MOL      0.044114
    172 H75        -1.7170   -1.7810   -1.1350 hc        1 MOL     -0.040660
    173 H76        -1.2020   -3.3520   -0.5180 hc        1 MOL     -0.040660
    174 N15        -4.9180   -1.4310    2.6780 n         1 MOL      0.012885
    175 C58        -5.8260   -1.2820    3.8000 c3        1 MOL     -0.230337
    176 H77        -5.4250   -0.5450    4.4950 h1        1 MOL      0.086032
    177 H78        -6.7990   -0.9490    3.4390 h1        1 MOL      0.086032
    178 H79        -5.9350   -2.2400    4.3100 h1        1 MOL      0.086032
    179 H80        -4.9160   -0.7350    1.9450 hn        1 MOL     -0.005844
    180 Ca1         2.4240    0.1310   -1.2280 Ca        1 MOL      1.775726
    181 O27         0.9500    0.9910   -3.4100 oh        1 MOL     -0.864452
    182 H81         0.0520    0.9390   -3.7320 ho        1 MOL      0.417667
    183 H82         1.4890    0.8560   -4.1780 ho        1 MOL      0.417667
@<TRIPOS>BOND
     1    1    2 1   
     2    1    4 1   
     3    1    5 1   
     4    1    6 1   
     5    2    3 2   
     6    2    7 1   
     7    7    8 1   
     8    7   15 1   
     9    8    9 1   
    10    8   11 1   
    11    8   16 1   
    12    9   10 2   
    13    9   19 1   
    14   11   12 1   
    15   11   17 1   
    16   11   18 1   
    17   12   13 1   
    18   12   14 1   
    19   19   20 1   
    20   19   27 1   
    21   20   21 1   
    22   20   23 1   
    23   20   28 1   
    24   21   22 2   
    25   21   38 1   
    26   23   24 1   
    27   23   25 1   
    28   23   29 1   
    29   24   26 1   
    30   24   30 1   
    31   24   31 1   
    32   25   32 1   
    33   25   33 1   
    34   25   34 1   
    35   26   35 1   
    36   26   36 1   
    37   26   37 1   
    38   38   39 1   
    39   38   46 1   
    40   39   40 1   
    41   39   42 1   
    42   39   47 1   
    43   40   41 2   
    44   40   50 1   
    45   42   43 1   
    46   42   48 1   
    47   42   49 1   
    48   43   44 1   
    49   43   45 1   
    50   50   51 1   
    51   50   54 1   
    52   51   52 1   
    53   51   55 1   
    54   51   56 1   
    55   52   53 2   
    56   52   57 1   
    57   57   58 1   
    58   57   65 1   
    59   58   59 1   
    60   58   61 1   
    61   58   66 1   
    62   59   60 2   
    63   59   69 1   
    64   61   62 1   
    65   61   67 1   
    66   61   68 1   
    67   62   63 1   
    68   62   64 1   
    69   69   70 1   
    70   69   73 1   
    71   70   71 1   
    72   70   74 1   
    73   70   75 1   
    74   71   72 2   
    75   71   76 1   
    76   76   77 1   
    77   76   85 1   
    78   77   78 1   
    79   77   80 1   
    80   77   86 1   
    81   78   79 2   
    82   78   93 1   
    83   80   81 1   
    84   80   87 1   
    85   80   88 1   
    86   81   82 1   
    87   81   89 1   
    88   81   90 1   
    89   82   83 1   
    90   82   84 2   
    91   83   91 1   
    92   83   92 1   
    93   93   94 1   
    94   93  100 1   
    95   94   95 1   
    96   94   97 1   
    97   94  101 1   
    98   95   96 2   
    99   95  109 1   
   100   97   98 1   
   101   97   99 1   
   102   97  102 1   
   103   98  103 1   
   104   98  104 1   
   105   98  105 1   
   106   99  106 1   
   107   99  107 1   
   108   99  108 1   
   109  109  110 1   
   110  109  117 1   
   111  110  111 1   
   112  110  113 1   
   113  110  118 1   
   114  111  112 2   
   115  111  123 1   
   116  113  114 1   
   117  113  119 1   
   118  113  120 1   
   119  114  115 1   
   120  114  116 2   
   121  115  121 1   
   122  115  122 1   
   123  123  124 1   
   124  123  135 1   
   125  124  125 1   
   126  124  127 1   
   127  124  136 1   
   128  125  126 2   
   129  125  144 1   
   130  127  128 1   
   131  127  137 1   
   132  127  138 1   
   133  128  129 ar  
   134  128  130 ar  
   135  129  131 ar  
   136  129  139 1   
   137  130  132 ar  
   138  130  140 1   
   139  131  133 ar  
   140  131  141 1   
   141  132  133 ar  
   142  132  142 1   
   143  133  134 1   
   144  134  143 1   
   145  144  145 1   
   146  144  153 1   
   147  145  146 1   
   148  145  148 1   
   149  145  154 1   
   150  146  147 2   
   151  146  159 1   
   152  148  149 1   
   153  148  155 1   
   154  148  156 1   
   155  149  150 1   
   156  149  157 1   
   157  149  158 1   
   158  150  151 1   
   159  150  152 1   
   160  159  160 1   
   161  159  168 1   
   162  160  161 1   
   163  160  163 1   
   164  160  169 1   
   165  161  162 2   
   166  161  174 1   
   167  163  164 1   
   168  163  170 1   
   169  163  171 1   
   170  164  165 1   
   171  164  172 1   
   172  164  173 1   
   173  165  166 1   
   174  165  167 1   
   175  174  175 1   
   176  174  179 1   
   177  175  176 1   
   178  175  177 1   
   179  175  178 1   
   180  181  182 1   
   181  181  183 1   
@<TRIPOS>SUBSTRUCTURE
     1 MOL         1 TEMP              0 ****  ****    0 ROOT
