@<TRIPOS>MOLECULE
MOL
  179   176     1     0     0
SMALL
resp


@<TRIPOS>ATOM
      1 C1         -1.8970   -2.5090    5.8440 c3        1 MOL     -0.297641
      2 C2         -1.4370   -2.5590    4.4000 c         1 MOL      0.728759
      3 O1         -2.1840   -2.7420    3.4440 o         1 MOL     -0.635196
      4 H1         -1.4130   -1.6740    6.3500 hc        1 MOL      0.080796
      5 H2         -2.9780   -2.3760    5.8760 hc        1 MOL      0.080796
      6 H3         -1.6280   -3.4400    6.3440 hc        1 MOL      0.080796
      7 N1         -0.1770   -2.3580    4.1290 n         1 MOL     -0.535947
      8 C3          0.3350   -2.2500    2.7600 c3        1 MOL      0.296106
      9 C4          0.7490   -3.6980    2.2220 c         1 MOL      0.258848
     10 O2          1.7320   -4.3970    2.6000 o         1 MOL     -0.491648
     11 C5          1.4590   -1.2470    2.8080 c3        1 MOL     -0.391751
     12 C6          2.3850   -1.1110    1.5440 c         1 MOL      1.021252
     13 O3          3.3910   -0.4210    1.5270 o         1 MOL     -0.892681
     14 O4          1.9960   -1.6630    0.4730 o         1 MOL     -0.892681
     15 H4          0.4260   -2.1490    4.9140 hn        1 MOL      0.285019
     16 H5         -0.4110   -1.8040    2.1070 h1        1 MOL      0.055483
     17 H6          2.2140   -1.5920    3.5040 hc        1 MOL      0.083900
     18 H7          1.1070   -0.2400    3.0580 hc        1 MOL      0.083900
     19 N2         -0.0360   -4.2270    1.2850 n         1 MOL      0.006057
     20 C7         -0.0630   -5.6700    1.0290 c3        1 MOL     -0.109251
     21 C8          1.0780   -6.1180    0.0330 c         1 MOL      0.482076
     22 O5          1.3560   -7.3040   -0.2310 o         1 MOL     -0.551149
     23 C9         -1.4570   -5.9760    0.5450 c3        1 MOL     -0.193372
     24 C10        -1.7650   -5.4560   -0.8810 c3        1 MOL      0.042108
     25 C11        -3.2420   -5.3420   -1.1350 c3        1 MOL     -0.110862
     26 C12        -3.5910   -4.7020   -2.5040 c3        1 MOL     -0.071752
     27 N3         -3.2530   -5.5880   -3.6490 n4        1 MOL     -0.328236
     28 H8         -0.7320   -3.6370    0.8450 hn        1 MOL      0.165307
     29 H9         -0.0220   -6.2280    1.9650 h1        1 MOL      0.132594
     30 H10        -2.1970   -5.5580    1.2230 hc        1 MOL      0.089314
     31 H11        -1.5390   -7.0670    0.4840 hc        1 MOL      0.089314
     32 H12        -1.2110   -6.0140   -1.6360 hc        1 MOL      0.024787
     33 H13        -1.5330   -4.3990   -1.0200 hc        1 MOL      0.024787
     34 H14        -3.8020   -4.6560   -0.4860 hc        1 MOL      0.069357
     35 H15        -3.6090   -6.3540   -0.9870 hc        1 MOL      0.069357
     36 H16        -3.0590   -3.7700   -2.6480 hx        1 MOL      0.121914
     37 H17        -4.6530   -4.4670   -2.4810 hx        1 MOL      0.121914
     38 H18        -2.2780   -5.8470   -3.6150 hn        1 MOL      0.319354
     39 H19        -3.7920   -6.4290   -3.4990 hn        1 MOL      0.319354
     40 H20        -3.5400   -5.2340   -4.5580 hn        1 MOL      0.319354
     41 N4          1.7140   -5.1120   -0.5870 n         1 MOL     -0.161840
     42 C13         2.8730   -5.3150   -1.4530 c3        1 MOL     -0.031500
     43 C14         4.0910   -4.6560   -0.8190 c         1 MOL      0.402701
     44 O6          5.1910   -4.6680   -1.3560 o         1 MOL     -0.552560
     45 C15         2.6680   -4.6900   -2.8420 c3        1 MOL     -0.037186
     46 C16         2.0730   -3.2740   -2.6530 c         1 MOL      0.726037
     47 O7          2.8690   -2.3830   -2.4700 o         1 MOL     -0.760527
     48 O8          0.8340   -3.0530   -2.8230 o         1 MOL     -0.760527
     49 H21         1.4490   -4.1710   -0.3230 hn        1 MOL     -0.046304
     50 H22         3.1230   -6.3710   -1.5750 h1        1 MOL      0.120210
     51 H23         1.9460   -5.2360   -3.4610 hc        1 MOL      0.010835
     52 H24         3.5980   -4.6830   -3.4120 hc        1 MOL      0.010835
     53 N5          3.8880   -4.1870    0.4100 n         1 MOL     -0.035047
     54 C17         4.8890   -3.7340    1.4060 c3        1 MOL     -0.253960
     55 C18         5.7330   -2.5920    0.9630 c         1 MOL      0.689190
     56 O9          6.7550   -2.4600    1.5860 o         1 MOL     -0.608338
     57 H25         2.9320   -4.2090    0.7230 hn        1 MOL      0.092137
     58 H26         5.4570   -4.6360    1.6450 h1        1 MOL      0.116059
     59 H27         4.3260   -3.2840    2.2220 h1        1 MOL      0.116059
     60 N6          5.4120   -1.8400   -0.1130 n         1 MOL     -0.388500
     61 C19         6.2530   -0.7890   -0.7680 c3        1 MOL     -0.296611
     62 C20         6.5380    0.5840   -0.0320 c         1 MOL      0.481349
     63 O10         7.1350    1.5280   -0.6240 o         1 MOL     -0.483074
     64 C21         5.7940   -0.5450   -2.2420 c3        1 MOL     -0.112918
     65 C22         4.6660    0.4450   -2.4000 c         1 MOL      0.582140
     66 N7          4.7900    1.4160   -3.3130 n         1 MOL     -0.722118
     67 O11         3.5720    0.4340   -1.8670 o         1 MOL     -0.541738
     68 H28         4.4700   -1.9480   -0.4570 hn        1 MOL      0.430079
     69 H29         7.2300   -1.2820   -0.8740 h1        1 MOL      0.198917
     70 H30         5.4920   -1.4640   -2.7500 hc        1 MOL      0.097898
     71 H31         6.6620   -0.2590   -2.8370 hc        1 MOL      0.097898
     72 H32         5.6580    1.5690   -3.8110 hn        1 MOL      0.333942
     73 H33         4.0130    1.9720   -3.6520 hn        1 MOL      0.333942
     74 N8          6.1570    0.6920    1.2680 n         1 MOL     -0.313813
     75 C23         6.2720    1.9320    2.0530 c3        1 MOL     -0.197775
     76 C24         5.0880    2.9350    1.9190 c         1 MOL      0.589980
     77 O12         5.1620    4.1070    2.4360 o         1 MOL     -0.556430
     78 H34         5.4920    0.0480    1.6670 hn        1 MOL      0.339545
     79 H35         7.2070    2.3920    1.7240 h1        1 MOL      0.113418
     80 H36         6.3550    1.7030    3.1190 h1        1 MOL      0.113418
     81 N9          4.0870    2.4720    1.1860 n         1 MOL     -0.573982
     82 C25         2.9610    3.2810    0.7390 c3        1 MOL      0.294852
     83 C26         1.5280    2.6000    0.7810 c         1 MOL      0.524792
     84 O13         1.2280    1.6570   -0.0140 o         1 MOL     -0.643667
     85 C27         3.1600    3.8300   -0.6410 c3        1 MOL     -0.010068
     86 C28         4.2670    4.8870   -0.8710 ca        1 MOL     -0.027257
     87 C29         5.3230    4.6540   -1.7360 ca        1 MOL     -0.089488
     88 C30         4.1050    6.1500   -0.2350 ca        1 MOL     -0.089488
     89 C31         6.2610    5.7280   -1.9820 ca        1 MOL     -0.309643
     90 C32         5.1150    7.1440   -0.3460 ca        1 MOL     -0.309643
     91 C33         6.1710    6.9260   -1.2490 ca        1 MOL      0.371921
     92 O14         7.1230    7.8300   -1.4570 oh        1 MOL     -0.469892
     93 H37         3.9790    1.5400    0.8300 hn        1 MOL      0.467974
     94 H38         2.9520    4.1800    1.3540 h1        1 MOL     -0.001532
     95 H39         2.2020    4.2070   -1.0220 hc        1 MOL     -0.005756
     96 H40         3.3530    2.9530   -1.2610 hc        1 MOL     -0.005756
     97 H41         5.3450    3.6750   -2.1940 ha        1 MOL      0.103897
     98 H42         3.1410    6.2650    0.2280 ha        1 MOL      0.103897
     99 H43         7.2060    5.5930   -2.5030 ha        1 MOL      0.158853
    100 H44         4.9880    8.0950    0.1440 ha        1 MOL      0.158853
    101 H45         6.8990    8.4710   -0.7780 ho        1 MOL      0.352632
    102 N10         0.6390    3.1410    1.6590 n         1 MOL     -0.587314
    103 C34        -0.7330    2.6910    1.8770 c3        1 MOL      0.017734
    104 C35        -1.6310    3.4970    1.0050 c         1 MOL      0.657213
    105 O15        -1.7310    4.7120    1.2350 o         1 MOL     -0.557821
    106 C36        -1.1990    2.7330    3.3310 c3        1 MOL      0.142275
    107 C37        -0.2050    2.1310    4.3820 c3        1 MOL      0.310800
    108 C38        -2.5220    1.9750    3.4740 c3        1 MOL     -0.351826
    109 C39        -0.1820    2.5350    5.8560 c3        1 MOL     -0.245958
    110 H46         0.9220    3.9340    2.2190 hn        1 MOL      0.320679
    111 H47        -0.8210    1.6330    1.6280 h1        1 MOL      0.111758
    112 H48        -1.4630    3.7640    3.5950 hc        1 MOL     -0.020812
    113 H49         0.7970    2.4000    4.0480 hc        1 MOL     -0.077298
    114 H50        -0.2100    1.0400    4.3600 hc        1 MOL     -0.077298
    115 H51        -3.2050    2.3210    2.7050 hc        1 MOL      0.068856
    116 H52        -2.2860    0.9090    3.4550 hc        1 MOL      0.068856
    117 H53        -2.9610    2.2030    4.4580 hc        1 MOL      0.068856
    118 H54        -1.1470    2.4270    6.3460 hc        1 MOL      0.051957
    119 H55         0.4380    1.8100    6.3720 hc        1 MOL      0.051957
    120 H56         0.2490    3.5340    5.9380 hc        1 MOL      0.051957
    121 N11        -2.2430    2.8810   -0.0880 n         1 MOL     -0.326924
    122 C40        -3.1840    3.4890   -1.0300 c3        1 MOL     -0.121358
    123 C41        -4.6120    3.3530   -0.5060 c         1 MOL      0.391007
    124 O16        -4.9080    2.4660    0.3220 o         1 MOL     -0.334182
    125 C42        -2.9590    2.9260   -2.4170 c3        1 MOL      0.139078
    126 O17        -3.1320    1.5450   -2.5800 oh        1 MOL     -0.644859
    127 H57        -2.0510    1.9080   -0.2730 hn        1 MOL      0.180201
    128 H58        -2.9060    4.5380   -1.0860 h1        1 MOL      0.072977
    129 H59        -1.9790    3.1920   -2.8180 h1        1 MOL      0.046010
    130 H60        -3.5980    3.4610   -3.1130 h1        1 MOL      0.046010
    131 H61        -2.5290    1.0820   -2.0010 ho        1 MOL      0.397701
    132 N12        -5.4620    4.2850   -0.8510 n         1 MOL     -0.383309
    133 C43        -6.8850    4.4050   -0.4080 c3        1 MOL      0.146414
    134 C44        -7.6590    3.0450   -0.7570 c         1 MOL      0.405168
    135 O18        -8.4020    2.5640    0.0890 o         1 MOL     -0.493984
    136 C45        -7.6550    5.6100   -1.0620 c3        1 MOL     -0.314264
    137 H62        -5.2130    4.9350   -1.5920 hn        1 MOL      0.272113
    138 H63        -6.9090    4.5660    0.6700 h1        1 MOL      0.096852
    139 H64        -7.4990    5.5660   -2.1350 hc        1 MOL      0.099505
    140 H65        -8.7060    5.6980   -0.7850 hc        1 MOL      0.099505
    141 H66        -7.1670    6.4660   -0.5930 hc        1 MOL      0.099505
    142 N13        -7.2840    2.3560   -1.8560 n         1 MOL     -0.350556
    143 C46        -7.7280    1.0360   -2.2540 c3        1 MOL      0.194821
    144 C47        -7.2840   -0.0470   -1.2840 c         1 MOL      0.315487
    145 O19        -8.1790   -0.8750   -1.0120 o         1 MOL     -0.493966
    146 C48        -7.2120    0.7540   -3.6390 c3        1 MOL     -0.489729
    147 H67        -6.8050    2.8330   -2.6020 hn        1 MOL      0.245171
    148 H68        -8.8180    1.0600   -2.1910 h1        1 MOL      0.077159
    149 H69        -7.3210   -0.3210   -3.7750 hc        1 MOL      0.129384
    150 H70        -7.8310    1.3280   -4.3320 hc        1 MOL      0.129384
    151 H71        -6.1770    1.0150   -3.8380 hc        1 MOL      0.129384
    152 N14        -6.0220   -0.0280   -0.8550 n         1 MOL     -0.096525
    153 C49        -5.5330   -1.0020    0.1380 c3        1 MOL     -0.280152
    154 C50        -6.3690   -0.7730    1.4000 c         1 MOL      0.474120
    155 O20        -6.6330   -1.7490    2.1000 o         1 MOL     -0.541240
    156 C51        -4.0400   -0.8670    0.3650 c3        1 MOL      0.222648
    157 C52        -3.2700   -1.3020   -0.9280 c3        1 MOL      0.101358
    158 C53        -1.8090   -0.9740   -0.7540 c         1 MOL      0.681449
    159 O21        -0.9550   -1.8150   -0.4550 o         1 MOL     -0.710313
    160 O22        -1.3730    0.1560   -1.1760 o         1 MOL     -0.710313
    161 H72        -5.4350    0.7770   -1.0500 hn        1 MOL      0.195503
    162 H73        -5.6490   -2.0310   -0.2070 h1        1 MOL      0.129297
    163 H74        -3.7740   -1.5080    1.2000 hc        1 MOL     -0.021944
    164 H75        -3.7870    0.1360    0.7160 hc        1 MOL     -0.021944
    165 H76        -3.7840   -0.8430   -1.7620 hc        1 MOL     -0.072128
    166 H77        -3.3970   -2.3850   -1.0010 hc        1 MOL     -0.072128
    167 N15        -6.6470    0.4780    1.8230 n         1 MOL     -0.018330
    168 C54        -7.2790    0.8030    3.0880 c3        1 MOL     -0.315578
    169 H78        -6.7240    1.6050    3.5760 h1        1 MOL      0.118844
    170 H79        -8.3050    1.1280    2.9100 h1        1 MOL      0.118844
    171 H80        -7.2840   -0.0780    3.7300 h1        1 MOL      0.118844
    172 H81        -6.1970    1.2360    1.3240 hn        1 MOL      0.064521
    173 Ca1         1.0110   -0.5950   -1.7540 Ca        1 MOL      1.802988
    174 O23         0.9690    1.5910   -3.2590 oh        1 MOL     -0.836718
    175 H82         0.5930    1.8100   -4.1100 ho        1 MOL      0.413397
    176 H83         1.0390    2.4310   -2.7990 ho        1 MOL      0.413397
    177 O24        -0.6430   -0.6360   -3.9590 oh        1 MOL     -0.836718
    178 H84        -0.7540    0.0560   -4.6070 ho        1 MOL      0.413397
    179 H85        -1.3290   -1.2670   -4.1810 ho        1 MOL      0.413397
@<TRIPOS>BOND
     1    1    2 1   
     2    1    4 1   
     3    1    5 1   
     4    1    6 1   
     5    2    3 2   
     6    2    7 1   
     7    7    8 1   
     8    7   15 1   
     9    8    9 1   
    10    8   11 1   
    11    8   16 1   
    12    9   10 2   
    13    9   19 1   
    14   11   12 1   
    15   11   17 1   
    16   11   18 1   
    17   12   13 1   
    18   12   14 1   
    19   19   20 1   
    20   19   28 1   
    21   20   21 1   
    22   20   23 1   
    23   20   29 1   
    24   21   22 2   
    25   21   41 1   
    26   23   24 1   
    27   23   30 1   
    28   23   31 1   
    29   24   25 1   
    30   24   32 1   
    31   24   33 1   
    32   25   26 1   
    33   25   34 1   
    34   25   35 1   
    35   26   27 1   
    36   26   36 1   
    37   26   37 1   
    38   27   38 1   
    39   27   39 1   
    40   27   40 1   
    41   41   42 1   
    42   41   49 1   
    43   42   43 1   
    44   42   45 1   
    45   42   50 1   
    46   43   44 2   
    47   43   53 1   
    48   45   46 1   
    49   45   51 1   
    50   45   52 1   
    51   46   47 1   
    52   46   48 1   
    53   53   54 1   
    54   53   57 1   
    55   54   55 1   
    56   54   58 1   
    57   54   59 1   
    58   55   56 2   
    59   55   60 1   
    60   60   61 1   
    61   60   68 1   
    62   61   62 1   
    63   61   64 1   
    64   61   69 1   
    65   62   63 2   
    66   62   74 1   
    67   64   65 1   
    68   64   70 1   
    69   64   71 1   
    70   65   66 1   
    71   65   67 2   
    72   66   72 1   
    73   66   73 1   
    74   74   75 1   
    75   74   78 1   
    76   75   76 1   
    77   75   79 1   
    78   75   80 1   
    79   76   77 2   
    80   76   81 1   
    81   81   82 1   
    82   81   93 1   
    83   82   83 1   
    84   82   85 1   
    85   82   94 1   
    86   83   84 2   
    87   83  102 1   
    88   85   86 1   
    89   85   95 1   
    90   85   96 1   
    91   86   87 ar  
    92   86   88 ar  
    93   87   89 ar  
    94   87   97 1   
    95   88   90 ar  
    96   88   98 1   
    97   89   91 ar  
    98   89   99 1   
    99   90   91 ar  
   100   90  100 1   
   101   91   92 1   
   102   92  101 1   
   103  102  103 1   
   104  102  110 1   
   105  103  104 1   
   106  103  106 1   
   107  103  111 1   
   108  104  105 2   
   109  104  121 1   
   110  106  107 1   
   111  106  108 1   
   112  106  112 1   
   113  107  109 1   
   114  107  113 1   
   115  107  114 1   
   116  108  115 1   
   117  108  116 1   
   118  108  117 1   
   119  109  118 1   
   120  109  119 1   
   121  109  120 1   
   122  121  122 1   
   123  121  127 1   
   124  122  123 1   
   125  122  125 1   
   126  122  128 1   
   127  123  124 2   
   128  123  132 1   
   129  125  126 1   
   130  125  129 1   
   131  125  130 1   
   132  126  131 1   
   133  132  133 1   
   134  132  137 1   
   135  133  134 1   
   136  133  136 1   
   137  133  138 1   
   138  134  135 2   
   139  134  142 1   
   140  136  139 1   
   141  136  140 1   
   142  136  141 1   
   143  142  143 1   
   144  142  147 1   
   145  143  144 1   
   146  143  146 1   
   147  143  148 1   
   148  144  145 2   
   149  144  152 1   
   150  146  149 1   
   151  146  150 1   
   152  146  151 1   
   153  152  153 1   
   154  152  161 1   
   155  153  154 1   
   156  153  156 1   
   157  153  162 1   
   158  154  155 2   
   159  154  167 1   
   160  156  157 1   
   161  156  163 1   
   162  156  164 1   
   163  157  158 1   
   164  157  165 1   
   165  157  166 1   
   166  158  159 1   
   167  158  160 1   
   168  167  168 1   
   169  167  172 1   
   170  168  169 1   
   171  168  170 1   
   172  168  171 1   
   173  174  175 1   
   174  174  176 1   
   175  177  178 1   
   176  177  179 1   
@<TRIPOS>SUBSTRUCTURE
     1 MOL         1 TEMP              0 ****  ****    0 ROOT
