@<TRIPOS>MOLECULE
MOL
  183   181     1     0     0
SMALL
resp


@<TRIPOS>ATOM
      1 C1         -0.4400    3.0340    5.8540 c3        1 MOL     -0.334672
      2 C2         -0.7850    2.5590    4.3400 c         1 MOL      0.723243
      3 O1          0.0440    2.6190    3.4510 o         1 MOL     -0.561346
      4 H1         -1.3680    3.1890    6.4050 hc        1 MOL      0.076868
      5 H2          0.1530    2.2660    6.3500 hc        1 MOL      0.076868
      6 H3          0.1240    3.9660    5.8230 hc        1 MOL      0.076868
      7 N1         -2.0120    2.0900    4.0950 n         1 MOL     -0.709131
      8 C3         -2.5460    1.8310    2.7680 c3        1 MOL      0.205245
      9 C4         -2.9280    3.2350    2.0820 c         1 MOL      0.579999
     10 O2         -3.6940    4.0430    2.6190 o         1 MOL     -0.608727
     11 C5         -3.7880    0.9280    2.8810 c3        1 MOL     -0.337449
     12 C6         -4.4020    0.5730    1.5460 c         1 MOL      0.812592
     13 O3         -5.4850   -0.0290    1.6090 o         1 MOL     -0.692652
     14 O4         -3.8700    0.9520    0.4770 o         1 MOL     -0.692652
     15 H4         -2.6380    2.2270    4.8660 hn        1 MOL      0.347732
     16 H5         -1.8720    1.3220    2.0790 h1        1 MOL      0.093205
     17 H6         -4.6050    1.4500    3.3860 hc        1 MOL      0.082393
     18 H7         -3.4270    0.0330    3.3800 hc        1 MOL      0.082393
     19 N2         -2.3880    3.6350    0.9650 n         1 MOL     -0.367816
     20 C7         -2.6820    4.9140    0.2790 c3        1 MOL     -0.001389
     21 C8         -3.7820    4.7720   -0.7310 c         1 MOL      0.479557
     22 O5         -4.4690    5.7620   -0.9220 o         1 MOL     -0.589632
     23 C9         -1.4570    5.5660   -0.4280 c3        1 MOL      0.220847
     24 C10        -0.3820    5.8570    0.6830 c3        1 MOL      0.093249
     25 C11        -1.7540    6.8520   -1.3020 c3        1 MOL     -0.244519
     26 C12         0.9440    6.4280    0.1030 c3        1 MOL     -0.078972
     27 H8         -1.8700    2.9760    0.4130 hn        1 MOL      0.140292
     28 H9         -3.0330    5.6120    1.0440 h1        1 MOL      0.083618
     29 H10        -1.0310    4.7510   -1.0170 hc        1 MOL     -0.016614
     30 H11        -0.1420    4.9640    1.2530 hc        1 MOL     -0.030150
     31 H12        -0.8120    6.5360    1.4100 hc        1 MOL     -0.030150
     32 H13        -0.8360    7.3330   -1.6550 hc        1 MOL      0.043926
     33 H14        -2.2460    6.6610   -2.2460 hc        1 MOL      0.043926
     34 H15        -2.2510    7.5410   -0.6180 hc        1 MOL      0.043926
     35 H16         1.7110    6.3270    0.8740 hc        1 MOL      0.003596
     36 H17         1.2360    5.9360   -0.8240 hc        1 MOL      0.003596
     37 H18         0.9330    7.5050   -0.0990 hc        1 MOL      0.003596
     38 N3         -4.0290    3.5900   -1.3080 n         1 MOL     -0.250276
     39 C13        -5.0270    3.4400   -2.4280 c3        1 MOL      0.056726
     40 C14        -6.3510    2.6670   -2.0250 c         1 MOL      0.504570
     41 O6         -7.3690    2.7120   -2.7290 o         1 MOL     -0.575626
     42 C15        -4.3760    2.8610   -3.7270 c3        1 MOL     -0.191532
     43 C16        -3.7190    1.4530   -3.6910 c         1 MOL      0.673371
     44 O7         -3.4370    0.8570   -4.7760 o         1 MOL     -0.682793
     45 O8         -3.5800    0.9140   -2.5590 o         1 MOL     -0.682793
     46 H19        -3.3890    2.8070   -1.1880 hn        1 MOL      0.188292
     47 H20        -5.4340    4.4110   -2.7160 h1        1 MOL      0.051563
     48 H21        -3.6210    3.6240   -3.9090 hc        1 MOL      0.047911
     49 H22        -5.0610    2.8220   -4.5830 hc        1 MOL      0.047911
     50 N4         -6.3470    2.1350   -0.8050 n         1 MOL     -0.266309
     51 C17        -7.5500    1.5690   -0.1060 c3        1 MOL     -0.355856
     52 C18        -7.9000    0.0590   -0.3870 c         1 MOL      0.636268
     53 O9         -8.9740   -0.3980    0.0350 o         1 MOL     -0.638756
     54 H23        -5.5250    2.0250   -0.2280 hn        1 MOL      0.222327
     55 H24        -8.4170    2.1910   -0.3250 h1        1 MOL      0.149492
     56 H25        -7.3590    1.6190    0.9560 h1        1 MOL      0.149492
     57 N5         -7.0680   -0.7030   -1.1030 n         1 MOL     -0.342601
     58 C19        -7.4550   -2.1620   -1.3350 c3        1 MOL     -0.005500
     59 C20        -7.3640   -3.0410    0.0170 c         1 MOL      0.380112
     60 O10        -7.4980   -4.2650    0.0040 o         1 MOL     -0.576199
     61 C21        -6.5560   -2.6710   -2.4570 c3        1 MOL     -0.064319
     62 C22        -4.9830   -2.5130   -2.3780 c         1 MOL      0.774551
     63 O11        -4.3990   -2.9020   -3.4050 o         1 MOL     -0.722840
     64 O12        -4.3920   -2.2280   -1.3280 o         1 MOL     -0.722840
     65 H26        -6.1360   -0.3390   -1.2590 hn        1 MOL      0.204412
     66 H27        -8.5100   -2.1800   -1.6300 h1        1 MOL      0.091612
     67 H28        -6.9340   -2.2210   -3.3670 hc        1 MOL      0.007653
     68 H29        -6.7550   -3.7220   -2.6010 hc        1 MOL      0.007653
     69 N6         -6.8640   -2.4430    1.0640 n         1 MOL     -0.017299
     70 C23        -6.6830   -3.0280    2.4380 c3        1 MOL     -0.274500
     71 C24        -5.2670   -3.6020    2.6570 c         1 MOL      0.714120
     72 O13        -5.1680   -4.2230    3.6820 o         1 MOL     -0.614783
     73 H30        -6.7780   -1.4380    1.0250 hn        1 MOL      0.198042
     74 H31        -7.4330   -3.8330    2.4730 h1        1 MOL      0.095870
     75 H32        -6.7890   -2.2180    3.1560 h1        1 MOL      0.095870
     76 N7         -4.2430   -3.3970    1.7950 n         1 MOL     -0.396355
     77 C25        -2.8350   -3.8650    2.0280 c3        1 MOL      0.217776
     78 C26        -1.8180   -2.7240    1.9230 c         1 MOL      0.512773
     79 O14        -2.1630   -1.6000    1.5550 o         1 MOL     -0.681653
     80 C27        -2.4890   -5.0410    1.2030 c3        1 MOL     -0.019791
     81 C28        -2.8600   -4.9840   -0.2650 c3        1 MOL     -0.208833
     82 C29        -1.7720   -4.2900   -1.0690 c         1 MOL      0.421152
     83 N8         -1.1120   -4.9160   -1.9720 n         1 MOL     -0.551765
     84 O15        -1.5210   -3.0780   -0.8280 o         1 MOL     -0.404586
     85 H33        -4.5640   -3.0390    0.9090 hn        1 MOL      0.128902
     86 H34        -2.7740   -4.2480    3.0540 h1        1 MOL      0.010546
     87 H35        -2.8640   -5.9500    1.6730 hc        1 MOL      0.000405
     88 H36        -1.3970   -5.1130    1.2770 hc        1 MOL      0.000405
     89 H37        -3.8930   -4.6630   -0.4410 hc        1 MOL      0.090488
     90 H38        -2.9900   -5.9890   -0.6810 hc        1 MOL      0.090488
     91 H39        -1.5520   -5.7990   -2.2100 hn        1 MOL      0.303872
     92 H40        -0.2420   -4.6560   -2.4070 hn        1 MOL      0.303872
     93 N9         -0.5720   -2.9890    2.2810 n         1 MOL     -0.317063
     94 C30         0.5410   -2.0970    2.2300 c3        1 MOL     -0.166151
     95 C31         1.7620   -2.8310    1.5470 c         1 MOL      0.441352
     96 O16         2.2190   -3.8730    2.0910 o         1 MOL     -0.585518
     97 C32         0.9560   -1.7360    3.7190 c3        1 MOL      0.363958
     98 C33         1.9480   -0.5420    3.7840 c3        1 MOL     -0.298577
     99 C34        -0.1970   -1.4370    4.6430 c3        1 MOL     -0.298577
    100 H41        -0.4660   -3.9050    2.7090 hn        1 MOL      0.241196
    101 H42         0.4020   -1.2220    1.6070 h1        1 MOL      0.157740
    102 H43         1.5650   -2.5310    4.1510 hc        1 MOL     -0.055267
    103 H44         2.8420   -0.6970    3.1970 hc        1 MOL      0.059314
    104 H45         1.3820    0.3060    3.4070 hc        1 MOL      0.059314
    105 H46         2.2310   -0.4440    4.8310 hc        1 MOL      0.059314
    106 H47         0.2270   -0.8320    5.4320 hc        1 MOL      0.059314
    107 H48        -0.9370   -0.9360    4.0120 hc        1 MOL      0.059314
    108 H49        -0.7530   -2.2460    5.1190 hc        1 MOL      0.059314
    109 N10         2.1610   -2.3240    0.4240 n         1 MOL     -0.056428
    110 C35         3.3760   -2.6630   -0.3960 c3        1 MOL      0.028975
    111 C36         4.6220   -2.0230    0.1730 c         1 MOL      0.433151
    112 O17         4.6060   -1.1630    1.1000 o         1 MOL     -0.423569
    113 C37         3.0920   -2.2140   -1.8340 c3        1 MOL     -0.106864
    114 C38         1.8130   -2.8830   -2.3000 c         1 MOL      0.701654
    115 N11         0.7350   -2.1410   -2.3140 n         1 MOL     -0.771614
    116 O18         1.7340   -4.1170   -2.3590 o         1 MOL     -0.643404
    117 H50         1.6320   -1.4810    0.2120 hn        1 MOL     -0.080845
    118 H51         3.5560   -3.7440   -0.4050 h1        1 MOL      0.057626
    119 H52         3.9060   -2.4070   -2.5210 hc        1 MOL      0.019544
    120 H53         2.8840   -1.1460   -1.7830 hc        1 MOL      0.019544
    121 H54         0.7740   -1.2110   -1.9050 hn        1 MOL      0.403890
    122 H55        -0.1430   -2.6320   -2.3750 hn        1 MOL      0.403890
    123 N12         5.7830   -2.2730   -0.4240 n         1 MOL     -0.544472
    124 C39         7.0710   -1.6220   -0.0310 c3        1 MOL      0.190927
    125 C40         7.1390   -0.0460   -0.3350 c         1 MOL      0.591757
    126 O19         7.4740    0.7890    0.5220 o         1 MOL     -0.573503
    127 C41         8.2440   -2.3500   -0.6910 c3        1 MOL     -0.135153
    128 C42         9.6340   -1.7450   -0.4010 ca        1 MOL      0.018133
    129 C43        10.1050   -1.8290    0.8950 ca        1 MOL     -0.160101
    130 C44        10.3200   -1.0840   -1.3870 ca        1 MOL     -0.160101
    131 C45        11.3310   -1.2560    1.1620 ca        1 MOL     -0.200861
    132 C46        11.4810   -0.3920   -1.1300 ca        1 MOL     -0.200861
    133 C47        12.0200   -0.5370    0.2140 ca        1 MOL      0.303774
    134 O20        13.2590   -0.0060    0.5180 oh        1 MOL     -0.539038
    135 H56         5.7570   -2.8790   -1.2260 hn        1 MOL      0.341627
    136 H57         7.2130   -1.7360    1.0350 h1        1 MOL      0.061838
    137 H58         8.0070   -2.4710   -1.7460 hc        1 MOL      0.049667
    138 H59         8.1690   -3.3960   -0.3910 hc        1 MOL      0.049667
    139 H60         9.4380   -2.1390    1.6940 ha        1 MOL      0.134381
    140 H61         9.8390   -1.0150   -2.3500 ha        1 MOL      0.134381
    141 H62        11.8080   -1.3180    2.1320 ha        1 MOL      0.120806
    142 H63        12.0650   -0.0440   -1.9650 ha        1 MOL      0.120806
    143 H64        13.5950    0.6110   -0.1320 ho        1 MOL      0.379128
    144 N13         6.6550    0.3100   -1.5340 n         1 MOL     -0.404862
    145 C48         6.3870    1.7590   -1.8900 c3        1 MOL     -0.077545
    146 C49         5.3660    2.5050   -0.9750 c         1 MOL      0.523694
    147 O21         5.4020    3.6990   -0.9220 o         1 MOL     -0.546246
    148 C50         5.9390    1.9420   -3.3680 c3        1 MOL     -0.071271
    149 C51         4.5560    1.3840   -3.8330 c3        1 MOL      0.051338
    150 C52         4.4900   -0.1300   -3.9310 c         1 MOL      0.711009
    151 O22         3.3800   -0.5190   -4.4480 o         1 MOL     -0.695472
    152 O23         5.5260   -0.8350   -3.7760 o         1 MOL     -0.695472
    153 H65         6.3670   -0.3990   -2.1950 hn        1 MOL      0.223809
    154 H66         7.3740    2.1990   -1.8080 h1        1 MOL      0.078497
    155 H67         6.6110    1.6140   -4.1670 hc        1 MOL      0.012449
    156 H68         5.9360    3.0300   -3.4140 hc        1 MOL      0.012449
    157 H69         4.2350    1.7630   -4.8030 hc        1 MOL     -0.029822
    158 H70         3.8570    1.7700   -3.0830 hc        1 MOL     -0.029822
    159 N14         4.5080    1.7520   -0.3110 n         1 MOL     -0.192408
    160 C53         3.5910    2.3070    0.7500 c3        1 MOL      0.012562
    161 C54         4.2490    2.3800    2.0860 c         1 MOL      0.353599
    162 O24         4.0670    3.3480    2.8280 o         1 MOL     -0.551593
    163 C55         2.3130    1.5900    0.8210 c3        1 MOL      0.087504
    164 C56         1.5570    1.8380   -0.4340 c3        1 MOL      0.027023
    165 C57         0.2510    1.0290   -0.5000 c         1 MOL      0.547126
    166 O25        -0.8080    1.6590   -0.6750 o         1 MOL     -0.654783
    167 O26         0.2450   -0.2660   -0.4570 o         1 MOL     -0.654783
    168 H71         4.5600    0.7510   -0.4340 hn        1 MOL      0.191170
    169 H72         3.3930    3.3360    0.4430 h1        1 MOL      0.050149
    170 H73         1.7610    1.9520    1.6890 hc        1 MOL      0.060599
    171 H74         2.4520    0.5030    0.8690 hc        1 MOL      0.060599
    172 H75         2.1120    1.4920   -1.3180 hc        1 MOL     -0.003946
    173 H76         1.4560    2.9080   -0.6150 hc        1 MOL     -0.003946
    174 N15         4.9230    1.3190    2.4230 n         1 MOL      0.076674
    175 C58         5.5620    1.1150    3.7090 c3        1 MOL     -0.255455
    176 H77         4.8080    1.1290    4.4950 h1        1 MOL      0.082631
    177 H78         6.0720    0.1510    3.7130 h1        1 MOL      0.082631
    178 H79         6.2860    1.9100    3.8860 h1        1 MOL      0.082631
    179 H80         5.2180    0.6800    1.7000 hn        1 MOL     -0.014965
    180 Ca1        -2.3840   -0.4890   -0.8480 Ca        1 MOL      1.681348
    181 O27        -2.1490   -1.3360   -3.5870 oh        1 MOL     -1.007192
    182 H81        -2.8530   -1.9610   -3.8020 ho        1 MOL      0.460206
    183 H82        -2.4000   -0.5270   -4.0290 ho        1 MOL      0.460206
@<TRIPOS>BOND
     1    1    2 1   
     2    1    4 1   
     3    1    5 1   
     4    1    6 1   
     5    2    3 2   
     6    2    7 1   
     7    7    8 1   
     8    7   15 1   
     9    8    9 1   
    10    8   11 1   
    11    8   16 1   
    12    9   10 2   
    13    9   19 1   
    14   11   12 1   
    15   11   17 1   
    16   11   18 1   
    17   12   13 1   
    18   12   14 1   
    19   19   20 1   
    20   19   27 1   
    21   20   21 1   
    22   20   23 1   
    23   20   28 1   
    24   21   22 2   
    25   21   38 1   
    26   23   24 1   
    27   23   25 1   
    28   23   29 1   
    29   24   26 1   
    30   24   30 1   
    31   24   31 1   
    32   25   32 1   
    33   25   33 1   
    34   25   34 1   
    35   26   35 1   
    36   26   36 1   
    37   26   37 1   
    38   38   39 1   
    39   38   46 1   
    40   39   40 1   
    41   39   42 1   
    42   39   47 1   
    43   40   41 2   
    44   40   50 1   
    45   42   43 1   
    46   42   48 1   
    47   42   49 1   
    48   43   44 1   
    49   43   45 1   
    50   50   51 1   
    51   50   54 1   
    52   51   52 1   
    53   51   55 1   
    54   51   56 1   
    55   52   53 2   
    56   52   57 1   
    57   57   58 1   
    58   57   65 1   
    59   58   59 1   
    60   58   61 1   
    61   58   66 1   
    62   59   60 2   
    63   59   69 1   
    64   61   62 1   
    65   61   67 1   
    66   61   68 1   
    67   62   63 1   
    68   62   64 1   
    69   69   70 1   
    70   69   73 1   
    71   70   71 1   
    72   70   74 1   
    73   70   75 1   
    74   71   72 2   
    75   71   76 1   
    76   76   77 1   
    77   76   85 1   
    78   77   78 1   
    79   77   80 1   
    80   77   86 1   
    81   78   79 2   
    82   78   93 1   
    83   80   81 1   
    84   80   87 1   
    85   80   88 1   
    86   81   82 1   
    87   81   89 1   
    88   81   90 1   
    89   82   83 1   
    90   82   84 2   
    91   83   91 1   
    92   83   92 1   
    93   93   94 1   
    94   93  100 1   
    95   94   95 1   
    96   94   97 1   
    97   94  101 1   
    98   95   96 2   
    99   95  109 1   
   100   97   98 1   
   101   97   99 1   
   102   97  102 1   
   103   98  103 1   
   104   98  104 1   
   105   98  105 1   
   106   99  106 1   
   107   99  107 1   
   108   99  108 1   
   109  109  110 1   
   110  109  117 1   
   111  110  111 1   
   112  110  113 1   
   113  110  118 1   
   114  111  112 2   
   115  111  123 1   
   116  113  114 1   
   117  113  119 1   
   118  113  120 1   
   119  114  115 1   
   120  114  116 2   
   121  115  121 1   
   122  115  122 1   
   123  123  124 1   
   124  123  135 1   
   125  124  125 1   
   126  124  127 1   
   127  124  136 1   
   128  125  126 2   
   129  125  144 1   
   130  127  128 1   
   131  127  137 1   
   132  127  138 1   
   133  128  129 ar  
   134  128  130 ar  
   135  129  131 ar  
   136  129  139 1   
   137  130  132 ar  
   138  130  140 1   
   139  131  133 ar  
   140  131  141 1   
   141  132  133 ar  
   142  132  142 1   
   143  133  134 1   
   144  134  143 1   
   145  144  145 1   
   146  144  153 1   
   147  145  146 1   
   148  145  148 1   
   149  145  154 1   
   150  146  147 2   
   151  146  159 1   
   152  148  149 1   
   153  148  155 1   
   154  148  156 1   
   155  149  150 1   
   156  149  157 1   
   157  149  158 1   
   158  150  151 1   
   159  150  152 1   
   160  159  160 1   
   161  159  168 1   
   162  160  161 1   
   163  160  163 1   
   164  160  169 1   
   165  161  162 2   
   166  161  174 1   
   167  163  164 1   
   168  163  170 1   
   169  163  171 1   
   170  164  165 1   
   171  164  172 1   
   172  164  173 1   
   173  165  166 1   
   174  165  167 1   
   175  174  175 1   
   176  174  179 1   
   177  175  176 1   
   178  175  177 1   
   179  175  178 1   
   180  181  182 1   
   181  181  183 1   
@<TRIPOS>SUBSTRUCTURE
     1 MOL         1 TEMP              0 ****  ****    0 ROOT
