@<TRIPOS>MOLECULE
MOL
  175   173     1     0     0
SMALL
resp


@<TRIPOS>ATOM
      1 C1          0.3110    4.2170    5.3810 c3        1 MOL     -0.389294
      2 C2         -0.4150    4.0740    4.0030 c         1 MOL      0.765761
      3 O1          0.2720    4.2200    3.0250 o         1 MOL     -0.572399
      4 H1          1.0790    3.4480    5.4690 hc        1 MOL      0.089633
      5 H2          0.7740    5.2010    5.4480 hc        1 MOL      0.089633
      6 H3         -0.4120    4.1000    6.1880 hc        1 MOL      0.089633
      7 N1         -1.6940    3.7150    3.9400 n         1 MOL     -0.777951
      8 C3         -2.4260    3.4670    2.6920 c3        1 MOL      0.377438
      9 C4         -2.4320    4.7240    1.8070 c         1 MOL      0.555297
     10 O2         -2.6470    5.8500    2.2370 o         1 MOL     -0.579598
     11 C5         -3.7270    2.8670    2.9720 c3        1 MOL     -0.200417
     12 C6         -4.4410    2.3640    1.6990 c         1 MOL      0.591613
     13 O3         -5.6290    2.6170    1.4870 o         1 MOL     -0.607813
     14 O4         -3.7330    1.7460    0.8300 o         1 MOL     -0.607813
     15 H4         -2.2540    3.5660    4.7710 hn        1 MOL      0.333278
     16 H5         -1.8300    2.7170    2.1640 h1        1 MOL      0.100229
     17 H6         -4.3090    3.5770    3.5650 hc        1 MOL      0.007532
     18 H7         -3.5270    1.9280    3.5020 hc        1 MOL      0.007532
     19 N2         -2.5330    4.4020    0.5270 n         1 MOL     -0.504259
     20 C7         -2.8180    5.4290   -0.5400 c3        1 MOL      0.335668
     21 C8         -3.7550    4.9510   -1.7190 c         1 MOL      0.486270
     22 O5         -3.9250    5.7040   -2.7070 o         1 MOL     -0.580441
     23 C9         -1.4720    5.9580   -0.9990 c3        1 MOL     -0.422031
     24 H8         -2.2740    3.4950    0.1680 hn        1 MOL      0.250883
     25 H9         -3.4770    6.1660   -0.0860 h1        1 MOL      0.006794
     26 H10        -1.0280    5.2340   -1.6790 hc        1 MOL      0.106318
     27 H11        -1.6950    6.8460   -1.5810 hc        1 MOL      0.106318
     28 H12        -0.7950    6.2360   -0.1900 hc        1 MOL      0.106318
     29 N3         -4.3730    3.7880   -1.6730 n         1 MOL     -0.458555
     30 C10        -5.0660    3.1590   -2.8530 c3        1 MOL      0.154841
     31 C11        -6.2560    2.3270   -2.4650 c         1 MOL      0.277135
     32 O6         -7.0910    2.0410   -3.3210 o         1 MOL     -0.540405
     33 C12        -4.0330    2.3240   -3.6130 c3        1 MOL     -0.325659
     34 C13        -3.2380    1.5290   -2.7410 c         1 MOL      0.756816
     35 O7         -2.0390    1.7680   -2.7170 o         1 MOL     -0.674517
     36 O8         -3.7760    0.5750   -2.1030 o         1 MOL     -0.674517
     37 H13        -4.1180    3.1860   -0.9020 hn        1 MOL      0.288319
     38 H14        -5.3590    3.9520   -3.5340 h1        1 MOL      0.091899
     39 H15        -3.3520    3.0590   -4.0350 hc        1 MOL      0.090419
     40 H16        -4.5690    1.7060   -4.3450 hc        1 MOL      0.090419
     41 N4         -6.3450    1.8810   -1.2000 n         1 MOL      0.030488
     42 C14        -7.4460    1.0310   -0.7520 c3        1 MOL     -0.261733
     43 C15        -7.3110   -0.4080   -1.1120 c         1 MOL      0.611902
     44 O9         -8.3480   -1.0690   -1.0030 o         1 MOL     -0.626985
     45 H17        -5.7090    2.2590   -0.5170 hn        1 MOL      0.033235
     46 H18        -8.3830    1.3080   -1.2340 h1        1 MOL      0.113545
     47 H19        -7.6180    1.1890    0.3150 h1        1 MOL      0.113545
     48 N5         -6.1370   -0.9910   -1.4040 n         1 MOL     -0.450484
     49 C16        -5.9990   -2.3590   -2.0050 c3        1 MOL     -0.007552
     50 C17        -5.8440   -3.4860   -0.9980 c         1 MOL      0.459508
     51 O10        -5.4520   -4.5840   -1.4110 o         1 MOL     -0.506037
     52 C18        -4.8810   -2.4060   -3.1350 c3        1 MOL      0.059872
     53 C19        -3.4180   -2.4620   -2.6000 c         1 MOL      0.408616
     54 N6         -2.4540   -2.7570   -3.4900 n         1 MOL     -0.579235
     55 O11        -3.1020   -2.2930   -1.4160 o         1 MOL     -0.566021
     56 H20        -5.3600   -0.3870   -1.6480 hn        1 MOL      0.325457
     57 H21        -6.9310   -2.6070   -2.5090 h1        1 MOL      0.099045
     58 H22        -4.9460   -1.5050   -3.7420 hc        1 MOL      0.014065
     59 H23        -5.1630   -3.1800   -3.8510 hc        1 MOL      0.014065
     60 H24        -2.5480   -2.9000   -4.4870 hn        1 MOL      0.319524
     61 H25        -1.4960   -2.8230   -3.1730 hn        1 MOL      0.319524
     62 N7         -6.1880   -3.2180    0.2830 n         1 MOL     -0.240990
     63 C20        -6.1870   -4.1260    1.3660 c3        1 MOL     -0.332877
     64 C21        -4.7830   -4.6730    1.7830 c         1 MOL      0.449232
     65 O12        -4.7800   -5.5770    2.6800 o         1 MOL     -0.548980
     66 H26        -6.2730   -2.2710    0.6280 hn        1 MOL      0.257132
     67 H27        -6.7380   -5.0330    1.1570 h1        1 MOL      0.154098
     68 H28        -6.6460   -3.5940    2.2030 h1        1 MOL      0.154098
     69 N8         -3.6290   -4.2150    1.1400 n         1 MOL      0.027303
     70 C22        -2.2720   -4.6750    1.3680 c3        1 MOL     -0.574368
     71 C23        -1.3270   -3.5150    1.3060 c         1 MOL      0.744664
     72 O13        -1.6640   -2.4670    0.8410 o         1 MOL     -0.561585
     73 C24        -1.8540   -5.5910    0.2770 c3        1 MOL      0.679612
     74 C25        -2.6580   -6.8800    0.2270 c3        1 MOL     -0.618217
     75 O14        -1.9750   -5.0620   -0.9450 oh        1 MOL     -0.602625
     76 H29        -3.7460   -3.3950    0.5770 hn        1 MOL      0.092181
     77 H30        -2.2590   -5.1820    2.3210 h1        1 MOL      0.170436
     78 H31        -0.8080   -5.9100    0.3230 h1        1 MOL     -0.060230
     79 H32        -2.0510   -4.1010   -0.8880 ho        1 MOL      0.382433
     80 H33        -2.0700   -7.5490   -0.3920 hc        1 MOL      0.146961
     81 H34        -2.7380   -7.1220    1.2830 hc        1 MOL      0.146961
     82 H35        -3.6470   -6.6960   -0.2020 hc        1 MOL      0.146961
     83 N9         -0.1940   -3.7210    1.9940 n         1 MOL     -0.561302
     84 C26         0.9590   -2.7320    2.0960 c3        1 MOL     -0.042634
     85 C27         1.8960   -2.9990    0.9340 c         1 MOL      0.463238
     86 O15         2.3640   -4.1590    0.7740 o         1 MOL     -0.589120
     87 C28         1.6740   -2.7960    3.4970 c3        1 MOL      0.416201
     88 C29         0.7000   -2.5560    4.6240 c3        1 MOL     -0.114684
     89 C30         2.8520   -1.7670    3.5590 c3        1 MOL     -0.370443
     90 C31         1.4720   -2.5360    5.9160 c3        1 MOL     -0.012972
     91 H36        -0.1240   -4.5570    2.5700 hn        1 MOL      0.290259
     92 H37         0.5550   -1.7150    2.0900 h1        1 MOL      0.064600
     93 H38         2.1310   -3.7830    3.5530 hc        1 MOL     -0.071310
     94 H39        -0.0510   -3.3250    4.4570 hc        1 MOL      0.013548
     95 H40         0.2310   -1.5720    4.5740 hc        1 MOL      0.013548
     96 H41         3.3950   -1.5800    2.6270 hc        1 MOL      0.066935
     97 H42         2.4790   -0.8280    3.9540 hc        1 MOL      0.066935
     98 H43         3.6980   -2.1310    4.1330 hc        1 MOL      0.066935
     99 H44         2.0190   -1.6150    6.1090 hc        1 MOL     -0.002243
    100 H45         0.8490   -2.8590    6.7540 hc        1 MOL     -0.002243
    101 H46         2.1440   -3.3880    5.9770 hc        1 MOL     -0.002243
    102 N10         2.1040   -1.9460    0.1620 n         1 MOL     -0.174104
    103 C32         2.9070   -1.9490   -1.0580 c3        1 MOL     -0.026659
    104 C33         4.2770   -1.3540   -0.7860 c         1 MOL      0.367155
    105 O16         4.4590   -0.6760    0.2380 o         1 MOL     -0.300514
    106 C34         2.2340   -1.0850   -2.1240 c3        1 MOL     -0.108283
    107 C35         0.7360   -1.3710   -2.3160 c         1 MOL      0.689494
    108 O17         0.3930   -2.0770   -3.2560 o         1 MOL     -0.680186
    109 O18        -0.1060   -0.8540   -1.5430 o         1 MOL     -0.680186
    110 H47         1.6710   -1.0590    0.3660 hn        1 MOL      0.270423
    111 H48         3.0130   -2.9540   -1.4860 h1        1 MOL      0.080196
    112 H49         2.6960   -1.2590   -3.1010 hc        1 MOL      0.035072
    113 H50         2.3510   -0.0480   -1.8190 hc        1 MOL      0.035072
    114 N11         5.2550   -1.5850   -1.6630 n         1 MOL     -0.579691
    115 C36         6.6120   -1.1110   -1.3740 c3        1 MOL      0.377158
    116 C37         6.6840    0.4690   -1.3760 c         1 MOL      0.267807
    117 O19         7.3550    0.9900   -0.4680 o         1 MOL     -0.514189
    118 C38         7.6780   -1.7260   -2.3790 c3        1 MOL     -0.340585
    119 C39         9.1320   -1.7220   -1.9050 ca        1 MOL      0.171327
    120 C40        10.0350   -0.8630   -2.5070 ca        1 MOL     -0.163827
    121 C41         9.6010   -2.6190   -0.9650 ca        1 MOL     -0.163827
    122 C42        11.4130   -0.7820   -2.1430 ca        1 MOL     -0.157850
    123 C43        10.9740   -2.5940   -0.5930 ca        1 MOL     -0.157850
    124 C44        11.8670   -1.7010   -1.1500 ca        1 MOL     -0.060657
    125 H51         5.1270   -2.2910   -2.3700 hn        1 MOL      0.322628
    126 H52         6.8600   -1.4070   -0.3550 h1        1 MOL      0.062311
    127 H53         7.6030   -1.3030   -3.3820 hc        1 MOL      0.093072
    128 H54         7.4450   -2.7890   -2.5040 hc        1 MOL      0.093072
    129 H55         9.6790   -0.1000   -3.1810 ha        1 MOL      0.119670
    130 H56         8.8710   -3.2970   -0.5410 ha        1 MOL      0.119670
    131 H57        11.9310    0.0760   -2.5390 ha        1 MOL      0.126795
    132 H58        11.2550   -3.2190    0.2410 ha        1 MOL      0.126795
    133 H59        12.9220   -1.7060   -0.9140 ha        1 MOL      0.087683
    134 N12         5.8760    1.2820   -2.1590 n         1 MOL     -0.016845
    135 C45         5.6950    2.7360   -1.9620 c3        1 MOL      0.066969
    136 C46         5.1950    3.2290   -0.5620 c         1 MOL      0.340934
    137 O20         5.2210    4.3860   -0.2680 o         1 MOL     -0.497353
    138 C47         4.7120    3.0650   -3.0940 c3        1 MOL     -0.111086
    139 C48         4.9530    2.0460   -4.2410 c3        1 MOL     -0.017020
    140 C49         5.2290    0.8620   -3.3600 c3        1 MOL     -0.095397
    141 H60         6.6530    3.2120   -2.1570 h1        1 MOL      0.042609
    142 H61         3.6980    3.0450   -2.6920 hc        1 MOL      0.053235
    143 H62         4.8730    4.1110   -3.3890 hc        1 MOL      0.053235
    144 H63         4.1060    1.9050   -4.9270 hc        1 MOL      0.033770
    145 H64         5.8200    2.3380   -4.8400 hc        1 MOL      0.033770
    146 H65         4.2730    0.4300   -3.0630 h1        1 MOL      0.048073
    147 H66         5.9150    0.2400   -3.9290 h1        1 MOL      0.048073
    148 N13         4.6630    2.2520    0.2520 n         1 MOL     -0.078396
    149 C50         4.1630    2.4490    1.5740 c3        1 MOL      0.006108
    150 C51         5.0240    1.7740    2.6550 c         1 MOL      0.313155
    151 O21         5.0870    2.3800    3.7460 o         1 MOL     -0.551809
    152 C52         2.8260    1.8150    1.6410 c3        1 MOL     -0.020886
    153 C53         1.7940    2.3310    0.6050 c3        1 MOL     -0.106645
    154 C54         0.4890    1.4920    0.7560 c         1 MOL      0.666171
    155 O22        -0.5940    1.9870    0.4080 o         1 MOL     -0.768377
    156 O23         0.4610    0.3090    1.0530 o         1 MOL     -0.768377
    157 H67         4.5440    1.2990   -0.0730 hn        1 MOL      0.068067
    158 H68         3.9230    3.4950    1.7560 h1        1 MOL      0.084831
    159 H69         2.3290    2.1500    2.5470 hc        1 MOL      0.053299
    160 H70         2.8600    0.7280    1.6060 hc        1 MOL      0.053299
    161 H71         2.1090    2.3460   -0.4340 hc        1 MOL      0.074183
    162 H72         1.6030    3.4010    0.7520 hc        1 MOL      0.074183
    163 N14         5.7840    0.7120    2.4100 n         1 MOL      0.048042
    164 C55         6.8690    0.1640    3.2250 c3        1 MOL     -0.232395
    165 H73         6.4640   -0.2050    4.1670 h1        1 MOL      0.085325
    166 H74         7.3480   -0.6560    2.6900 h1        1 MOL      0.085325
    167 H75         7.6020    0.9450    3.4270 h1        1 MOL      0.085325
    168 H76         5.6190    0.3010    1.5040 hn        1 MOL      0.013797
    169 Ca1        -2.0700   -0.0440   -0.1010 Ca        1 MOL      1.664517
    170 O24        -1.9120    0.3290    2.7180 oh        1 MOL     -0.806998
    171 H77        -2.2360    0.3660    3.6190 ho        1 MOL      0.393855
    172 H78        -0.9740    0.4940    2.7900 ho        1 MOL      0.393855
    173 O25        -4.4000   -0.7810    1.1500 oh        1 MOL     -0.806998
    174 H79        -4.8410   -1.0970    1.9440 ho        1 MOL      0.393855
    175 H80        -4.6310    0.1540    1.1130 ho        1 MOL      0.393855
@<TRIPOS>BOND
     1    1    2 1   
     2    1    4 1   
     3    1    5 1   
     4    1    6 1   
     5    2    3 2   
     6    2    7 1   
     7    7    8 1   
     8    7   15 1   
     9    8    9 1   
    10    8   11 1   
    11    8   16 1   
    12    9   10 2   
    13    9   19 1   
    14   11   12 1   
    15   11   17 1   
    16   11   18 1   
    17   12   13 1   
    18   12   14 1   
    19   19   20 1   
    20   19   24 1   
    21   20   21 1   
    22   20   23 1   
    23   20   25 1   
    24   21   22 2   
    25   21   29 1   
    26   23   26 1   
    27   23   27 1   
    28   23   28 1   
    29   29   30 1   
    30   29   37 1   
    31   30   31 1   
    32   30   33 1   
    33   30   38 1   
    34   31   32 2   
    35   31   41 1   
    36   33   34 1   
    37   33   39 1   
    38   33   40 1   
    39   34   35 1   
    40   34   36 1   
    41   41   42 1   
    42   41   45 1   
    43   42   43 1   
    44   42   46 1   
    45   42   47 1   
    46   43   44 2   
    47   43   48 1   
    48   48   49 1   
    49   48   56 1   
    50   49   50 1   
    51   49   52 1   
    52   49   57 1   
    53   50   51 2   
    54   50   62 1   
    55   52   53 1   
    56   52   58 1   
    57   52   59 1   
    58   53   54 1   
    59   53   55 2   
    60   54   60 1   
    61   54   61 1   
    62   62   63 1   
    63   62   66 1   
    64   63   64 1   
    65   63   67 1   
    66   63   68 1   
    67   64   65 2   
    68   64   69 1   
    69   69   70 1   
    70   69   76 1   
    71   70   71 1   
    72   70   73 1   
    73   70   77 1   
    74   71   72 2   
    75   71   83 1   
    76   73   74 1   
    77   73   75 1   
    78   73   78 1   
    79   74   80 1   
    80   74   81 1   
    81   74   82 1   
    82   75   79 1   
    83   83   84 1   
    84   83   91 1   
    85   84   85 1   
    86   84   87 1   
    87   84   92 1   
    88   85   86 2   
    89   85  102 1   
    90   87   88 1   
    91   87   89 1   
    92   87   93 1   
    93   88   90 1   
    94   88   94 1   
    95   88   95 1   
    96   89   96 1   
    97   89   97 1   
    98   89   98 1   
    99   90   99 1   
   100   90  100 1   
   101   90  101 1   
   102  102  103 1   
   103  102  110 1   
   104  103  104 1   
   105  103  106 1   
   106  103  111 1   
   107  104  105 2   
   108  104  114 1   
   109  106  107 1   
   110  106  112 1   
   111  106  113 1   
   112  107  108 1   
   113  107  109 1   
   114  114  115 1   
   115  114  125 1   
   116  115  116 1   
   117  115  118 1   
   118  115  126 1   
   119  116  117 2   
   120  116  134 1   
   121  118  119 1   
   122  118  127 1   
   123  118  128 1   
   124  119  120 ar  
   125  119  121 ar  
   126  120  122 ar  
   127  120  129 1   
   128  121  123 ar  
   129  121  130 1   
   130  122  124 ar  
   131  122  131 1   
   132  123  124 ar  
   133  123  132 1   
   134  124  133 1   
   135  134  135 1   
   136  134  140 1   
   137  135  136 1   
   138  135  138 1   
   139  135  141 1   
   140  136  137 2   
   141  136  148 1   
   142  138  139 1   
   143  138  142 1   
   144  138  143 1   
   145  139  140 1   
   146  139  144 1   
   147  139  145 1   
   148  140  146 1   
   149  140  147 1   
   150  148  149 1   
   151  148  157 1   
   152  149  150 1   
   153  149  152 1   
   154  149  158 1   
   155  150  151 2   
   156  150  163 1   
   157  152  153 1   
   158  152  159 1   
   159  152  160 1   
   160  153  154 1   
   161  153  161 1   
   162  153  162 1   
   163  154  155 1   
   164  154  156 1   
   165  163  164 1   
   166  163  168 1   
   167  164  165 1   
   168  164  166 1   
   169  164  167 1   
   170  170  171 1   
   171  170  172 1   
   172  173  174 1   
   173  173  175 1   
@<TRIPOS>SUBSTRUCTURE
     1 MOL         1 TEMP              0 ****  ****    0 ROOT
