@<TRIPOS>MOLECULE
MOL
  179   176     1     0     0
SMALL
resp


@<TRIPOS>ATOM
      1 C1          2.6650    3.2260    4.0860 c3        1 MOL     -0.210000
      2 C2          1.6510    3.1150    2.9530 c         1 MOL      0.580681
      3 O1          2.0300    3.0420    1.8000 o         1 MOL     -0.477274
      4 H1          2.9350    2.2290    4.4320 hc        1 MOL      0.053301
      5 H2          3.5570    3.7390    3.7270 hc        1 MOL      0.053301
      6 H3          2.2280    3.7890    4.9100 hc        1 MOL      0.053301
      7 N1          0.3340    2.9300    3.2290 n         1 MOL     -0.557430
      8 C3         -0.7020    2.6660    2.1470 c3        1 MOL      0.024243
      9 C4         -1.2410    3.9710    1.4100 c         1 MOL      0.568775
     10 O2         -2.3180    4.4780    1.6740 o         1 MOL     -0.460767
     11 C5         -1.8690    1.9310    2.7550 c3        1 MOL      0.127594
     12 C6         -2.8500    1.3020    1.6900 c         1 MOL      0.501200
     13 O3         -4.0430    1.1260    1.9430 o         1 MOL     -0.569214
     14 O4         -2.3440    1.2140    0.5180 o         1 MOL     -0.569214
     15 H4         -0.0570    2.8610    4.1590 hn        1 MOL      0.324923
     16 H5         -0.2900    2.0000    1.3990 h1        1 MOL     -0.024949
     17 H6         -2.4940    2.6050    3.3430 hc        1 MOL     -0.048543
     18 H7         -1.6050    1.0780    3.3750 hc        1 MOL     -0.048543
     19 N2         -0.3020    4.7070    0.7720 n         1 MOL     -0.398245
     20 C7         -0.4640    6.1470    0.3060 c3        1 MOL     -0.184987
     21 C8         -1.6330    6.2650   -0.7190 c         1 MOL      0.562940
     22 O5         -2.1260    7.3390   -0.8420 o         1 MOL     -0.543746
     23 C9          0.9230    6.5860   -0.2020 c3        1 MOL     -0.205865
     24 C10         2.0520    6.5100    0.8510 c3        1 MOL      0.378249
     25 C11         3.3810    7.1440    0.3600 c3        1 MOL     -0.259102
     26 C12         4.3040    7.1230    1.6610 c3        1 MOL      0.048355
     27 N3          3.8870    8.1650    2.6710 n4        1 MOL     -0.576310
     28 H8          0.5730    4.2280    0.6380 hn        1 MOL      0.271337
     29 H9         -0.6360    6.6690    1.2520 h1        1 MOL      0.122426
     30 H10         0.8500    7.6080   -0.5510 hc        1 MOL      0.079557
     31 H11         1.1460    6.0400   -1.1170 hc        1 MOL      0.079557
     32 H12         2.2140    5.4630    1.1060 hc        1 MOL     -0.083582
     33 H13         1.7490    6.9540    1.7980 hc        1 MOL     -0.083582
     34 H14         3.2050    8.1560   -0.0220 hc        1 MOL      0.105562
     35 H15         3.8070    6.4740   -0.3790 hc        1 MOL      0.105562
     36 H16         5.3600    7.1380    1.4010 hx        1 MOL      0.116796
     37 H17         4.1160    6.1370    2.0810 hx        1 MOL      0.116796
     38 H18         4.5280    8.2590    3.4510 hn        1 MOL      0.382431
     39 H19         3.7720    9.0170    2.1410 hn        1 MOL      0.382431
     40 H20         3.0670    7.8700    3.1800 hn        1 MOL      0.382431
     41 N4         -1.9210    5.2490   -1.5010 n         1 MOL     -0.306301
     42 C13        -3.0120    5.0850   -2.4630 c3        1 MOL     -0.006913
     43 C14        -4.3560    4.6590   -1.8500 c         1 MOL      0.425828
     44 O6         -5.4240    4.9080   -2.4750 o         1 MOL     -0.516369
     45 C15        -2.4990    4.0100   -3.4400 c3        1 MOL     -0.066434
     46 C16        -2.2050    2.6480   -2.8670 c         1 MOL      0.743799
     47 O7         -1.3040    2.5910   -1.9920 o         1 MOL     -0.787673
     48 O8         -2.8520    1.5850   -3.1360 o         1 MOL     -0.787673
     49 H21        -1.2770    4.4670   -1.4970 hn        1 MOL      0.282124
     50 H22        -3.1790    5.9680   -3.0860 h1        1 MOL      0.092441
     51 H23        -1.5440    4.3860   -3.8120 hc        1 MOL      0.016787
     52 H24        -3.1820    3.9090   -4.2790 hc        1 MOL      0.016787
     53 N5         -4.3550    4.1460   -0.5840 n         1 MOL      0.021039
     54 C17        -5.4970    3.8660    0.1690 c3        1 MOL     -0.224314
     55 C18        -6.3510    2.7510   -0.3430 c         1 MOL      0.543454
     56 O9         -7.5360    2.9160   -0.6470 o         1 MOL     -0.550926
     57 H25        -3.4180    4.0670   -0.2050 hn        1 MOL      0.006543
     58 H26        -6.1830    4.7180    0.1080 h1        1 MOL      0.104015
     59 H27        -5.1730    3.7680    1.2050 h1        1 MOL      0.104015
     60 N6         -5.8440    1.4900   -0.4190 n         1 MOL     -0.262865
     61 C19        -6.6020    0.3230   -0.9820 c3        1 MOL      0.130567
     62 C20        -6.7760   -0.8550    0.0760 c         1 MOL      0.167618
     63 O10        -7.5010   -1.7960   -0.1460 o         1 MOL     -0.428737
     64 C21        -5.9890   -0.0980   -2.3140 c3        1 MOL     -0.078069
     65 C22        -4.8990   -1.1670   -2.1690 c         1 MOL      0.547724
     66 N7         -4.8800   -2.2290   -2.8570 n         1 MOL     -0.596323
     67 O11        -3.9240   -1.0430   -1.4440 o         1 MOL     -0.678684
     68 H28        -4.8560    1.4060   -0.2100 hn        1 MOL      0.093076
     69 H29        -7.6090    0.6830   -1.1960 h1        1 MOL      0.094866
     70 H30        -5.5800    0.7450   -2.8610 hc        1 MOL      0.060385
     71 H31        -6.8260   -0.4140   -2.9360 hc        1 MOL      0.060385
     72 H32        -5.6230   -2.5110   -3.4660 hn        1 MOL      0.316756
     73 H33        -4.0320   -2.7830   -2.9510 hn        1 MOL      0.316756
     74 N8         -6.0340   -0.7930    1.1880 n         1 MOL      0.075992
     75 C23        -6.1720   -1.8600    2.2110 c3        1 MOL     -0.363530
     76 C24        -5.0430   -2.9000    2.1760 c         1 MOL      0.698763
     77 O12        -5.1270   -3.9610    2.7950 o         1 MOL     -0.563310
     78 H34        -5.5610    0.1020    1.2960 hn        1 MOL      0.098667
     79 H35        -7.1010   -2.4210    2.1000 h1        1 MOL      0.149074
     80 H36        -6.1170   -1.4930    3.2360 h1        1 MOL      0.149074
     81 N9         -3.9600   -2.6200    1.4270 n         1 MOL     -0.593415
     82 C25        -2.8080   -3.6000    1.1750 c3        1 MOL     -0.013341
     83 C26        -1.4400   -2.8640    0.9270 c         1 MOL      0.644826
     84 O13        -1.3700   -1.8920    0.1870 o         1 MOL     -0.697137
     85 C27        -3.2050   -4.4420   -0.0400 c3        1 MOL      0.141355
     86 C28        -4.5050   -5.2110    0.0530 ca        1 MOL     -0.005773
     87 C29        -5.6800   -4.5830   -0.3550 ca        1 MOL     -0.222070
     88 C30        -4.4860   -6.6180    0.4600 ca        1 MOL     -0.222070
     89 C31        -6.8870   -5.2390   -0.1210 ca        1 MOL     -0.197556
     90 C32        -5.7630   -7.2530    0.7030 ca        1 MOL     -0.197556
     91 C33        -6.9340   -6.5390    0.4270 ca        1 MOL      0.344090
     92 O14        -8.1280   -7.1920    0.6090 oh        1 MOL     -0.499509
     93 H37        -3.9220   -1.8070    0.8270 hn        1 MOL      0.374710
     94 H38        -2.7420   -4.2480    2.0440 h1        1 MOL      0.105611
     95 H39        -2.4110   -5.1760   -0.2010 hc        1 MOL     -0.024821
     96 H40        -3.1580   -3.8940   -0.9780 hc        1 MOL     -0.024821
     97 H41        -5.6840   -3.5680   -0.7280 ha        1 MOL      0.147953
     98 H42        -3.5450   -7.1500    0.5730 ha        1 MOL      0.147953
     99 H43        -7.7730   -4.6930   -0.4130 ha        1 MOL      0.129426
    100 H44        -5.7620   -8.2910    1.0140 ha        1 MOL      0.129426
    101 H45        -7.9480   -7.9890    1.1200 ho        1 MOL      0.353467
    102 N10        -0.3850   -3.3370    1.6190 n         1 MOL     -0.473243
    103 C34         1.0120   -2.7570    1.4830 c3        1 MOL     -0.006205
    104 C35         2.1580   -3.7760    1.1560 c         1 MOL      0.565733
    105 O15         2.2240   -4.9230    1.6900 o         1 MOL     -0.574731
    106 C36         1.3560   -1.7870    2.5870 c3        1 MOL     -0.056013
    107 C37         1.6550   -2.6070    3.8740 c3        1 MOL     -0.180865
    108 C38         0.3340   -0.6560    2.9180 c3        1 MOL      0.090875
    109 C39         1.9430   -1.8190    5.1660 c3        1 MOL     -0.137408
    110 H46        -0.5430   -4.0790    2.2740 hn        1 MOL      0.280946
    111 H47         0.9980   -2.0820    0.6230 h1        1 MOL      0.080300
    112 H48         2.3010   -1.3010    2.3170 hc        1 MOL      0.036694
    113 H49         2.4780   -3.2990    3.7090 hc        1 MOL      0.083403
    114 H50         0.6980   -3.0910    4.0650 hc        1 MOL      0.083403
    115 H51         0.1760    0.0080    2.0670 hc        1 MOL      0.018066
    116 H52        -0.6270   -1.0310    3.2770 hc        1 MOL      0.018066
    117 H53         0.7090   -0.0030    3.7030 hc        1 MOL      0.018066
    118 H54         2.7450   -1.0780    5.1070 hc        1 MOL      0.038939
    119 H55         1.0510   -1.3030    5.5110 hc        1 MOL      0.038939
    120 H56         2.2770   -2.5360    5.9070 hc        1 MOL      0.038939
    121 N11         3.0410   -3.3360    0.2760 n         1 MOL     -0.454674
    122 C40         4.0770   -4.2160   -0.3530 c3        1 MOL      0.173886
    123 C41         5.4350   -3.6930    0.0300 c         1 MOL      0.398489
    124 O16         5.6180   -2.5960    0.5520 o         1 MOL     -0.352418
    125 C42         3.7420   -4.3350   -1.8190 c3        1 MOL     -0.030140
    126 O17         3.9810   -3.1620   -2.5730 oh        1 MOL     -0.634123
    127 H57         3.0010   -2.3980   -0.0990 hn        1 MOL      0.320619
    128 H58         3.9730   -5.2660   -0.0500 h1        1 MOL      0.030994
    129 H59         2.6660   -4.5070   -1.7570 h1        1 MOL      0.082165
    130 H60         4.2750   -5.2420   -2.0870 h1        1 MOL      0.082165
    131 H61         3.3140   -2.5310   -2.2940 ho        1 MOL      0.446667
    132 N12         6.4620   -4.5080   -0.2690 n         1 MOL     -0.482302
    133 C43         7.8900   -4.0620   -0.1750 c3        1 MOL      0.060764
    134 C44         8.2160   -2.8020   -0.9330 c         1 MOL      0.410353
    135 O18         8.9630   -1.9180   -0.3980 o         1 MOL     -0.517001
    136 C45         8.7060   -5.3100   -0.6040 c3        1 MOL     -0.258968
    137 H62         6.3440   -5.3050   -0.8710 hn        1 MOL      0.310905
    138 H63         8.0450   -3.9190    0.8990 h1        1 MOL      0.125815
    139 H64         8.5390   -5.5670   -1.6460 hc        1 MOL      0.084319
    140 H65         9.7660   -5.1990   -0.3820 hc        1 MOL      0.084319
    141 H66         8.3560   -6.1540   -0.0060 hc        1 MOL      0.084319
    142 N13         7.6360   -2.5030   -2.1280 n         1 MOL     -0.263067
    143 C46         7.9460   -1.2420   -2.8180 c3        1 MOL     -0.026325
    144 C47         7.3490    0.0300   -2.0910 c         1 MOL      0.458930
    145 O19         8.0200    1.0360   -2.0510 o         1 MOL     -0.502486
    146 C48         7.2680   -1.4510   -4.1340 c3        1 MOL     -0.184087
    147 H67         7.1310   -3.2060   -2.6560 hn        1 MOL      0.258444
    148 H68         9.0370   -1.2440   -2.9310 h1        1 MOL      0.110067
    149 H69         7.3870   -0.5560   -4.7440 hc        1 MOL      0.047748
    150 H70         7.6800   -2.3150   -4.6570 hc        1 MOL      0.047748
    151 H71         6.1990   -1.5740   -4.0280 hc        1 MOL      0.047748
    152 N14         6.1750   -0.1530   -1.5060 n         1 MOL     -0.165684
    153 C49         5.5680    0.8110   -0.5450 c3        1 MOL     -0.189197
    154 C50         6.5050    1.0240    0.7100 c         1 MOL      0.451249
    155 O20         6.8280    2.1800    1.0100 o         1 MOL     -0.542468
    156 C51         4.1560    0.3370   -0.1360 c3        1 MOL      0.143038
    157 C52         3.1300    0.5700   -1.2520 c3        1 MOL     -0.136839
    158 C53         1.9720   -0.3350   -1.1800 c         1 MOL      0.769368
    159 O21         0.8890    0.0720   -0.7240 o         1 MOL     -0.713320
    160 O22         2.1310   -1.4570   -1.6850 o         1 MOL     -0.713320
    161 H72         5.8270   -1.1020   -1.5480 hn        1 MOL      0.207045
    162 H73         5.4730    1.7890   -1.0030 h1        1 MOL      0.125517
    163 H74         3.7970    0.9190    0.7090 hc        1 MOL     -0.035129
    164 H75         4.1670   -0.7340    0.0760 hc        1 MOL     -0.035129
    165 H76         3.7280    0.3910   -2.1580 hc        1 MOL      0.007928
    166 H77         2.9440    1.6380   -1.2170 hc        1 MOL      0.007928
    167 N15         6.9190   -0.0830    1.4170 n         1 MOL     -0.060064
    168 C54         7.8200    0.0820    2.5630 c3        1 MOL     -0.437828
    169 H78         8.1260   -0.8980    2.9290 h1        1 MOL      0.151208
    170 H79         8.7010    0.6450    2.2550 h1        1 MOL      0.151208
    171 H80         7.3030    0.6210    3.3580 h1        1 MOL      0.151208
    172 H81         6.4940   -0.9590    1.1340 hn        1 MOL      0.114554
    173 Ca1        -1.5060    0.0290   -1.4810 Ca        1 MOL      1.776802
    174 O23         0.0280    0.7510   -3.7160 oh        1 MOL     -0.812170
    175 H82        -0.1210    1.5230   -4.2650 ho        1 MOL      0.407982
    176 H83         0.3830    0.0980   -4.3140 ho        1 MOL      0.407982
    177 O24        -1.3530   -1.9800   -3.1910 oh        1 MOL     -0.812170
    178 H84        -1.8320   -2.7730   -2.9750 ho        1 MOL      0.407982
    179 H85        -1.0760   -2.1020   -4.1000 ho        1 MOL      0.407982
@<TRIPOS>BOND
     1    1    2 1   
     2    1    4 1   
     3    1    5 1   
     4    1    6 1   
     5    2    3 2   
     6    2    7 1   
     7    7    8 1   
     8    7   15 1   
     9    8    9 1   
    10    8   11 1   
    11    8   16 1   
    12    9   10 2   
    13    9   19 1   
    14   11   12 1   
    15   11   17 1   
    16   11   18 1   
    17   12   13 1   
    18   12   14 1   
    19   19   20 1   
    20   19   28 1   
    21   20   21 1   
    22   20   23 1   
    23   20   29 1   
    24   21   22 2   
    25   21   41 1   
    26   23   24 1   
    27   23   30 1   
    28   23   31 1   
    29   24   25 1   
    30   24   32 1   
    31   24   33 1   
    32   25   26 1   
    33   25   34 1   
    34   25   35 1   
    35   26   27 1   
    36   26   36 1   
    37   26   37 1   
    38   27   38 1   
    39   27   39 1   
    40   27   40 1   
    41   41   42 1   
    42   41   49 1   
    43   42   43 1   
    44   42   45 1   
    45   42   50 1   
    46   43   44 2   
    47   43   53 1   
    48   45   46 1   
    49   45   51 1   
    50   45   52 1   
    51   46   47 1   
    52   46   48 1   
    53   53   54 1   
    54   53   57 1   
    55   54   55 1   
    56   54   58 1   
    57   54   59 1   
    58   55   56 2   
    59   55   60 1   
    60   60   61 1   
    61   60   68 1   
    62   61   62 1   
    63   61   64 1   
    64   61   69 1   
    65   62   63 2   
    66   62   74 1   
    67   64   65 1   
    68   64   70 1   
    69   64   71 1   
    70   65   66 1   
    71   65   67 2   
    72   66   72 1   
    73   66   73 1   
    74   74   75 1   
    75   74   78 1   
    76   75   76 1   
    77   75   79 1   
    78   75   80 1   
    79   76   77 2   
    80   76   81 1   
    81   81   82 1   
    82   81   93 1   
    83   82   83 1   
    84   82   85 1   
    85   82   94 1   
    86   83   84 2   
    87   83  102 1   
    88   85   86 1   
    89   85   95 1   
    90   85   96 1   
    91   86   87 ar  
    92   86   88 ar  
    93   87   89 ar  
    94   87   97 1   
    95   88   90 ar  
    96   88   98 1   
    97   89   91 ar  
    98   89   99 1   
    99   90   91 ar  
   100   90  100 1   
   101   91   92 1   
   102   92  101 1   
   103  102  103 1   
   104  102  110 1   
   105  103  104 1   
   106  103  106 1   
   107  103  111 1   
   108  104  105 2   
   109  104  121 1   
   110  106  107 1   
   111  106  108 1   
   112  106  112 1   
   113  107  109 1   
   114  107  113 1   
   115  107  114 1   
   116  108  115 1   
   117  108  116 1   
   118  108  117 1   
   119  109  118 1   
   120  109  119 1   
   121  109  120 1   
   122  121  122 1   
   123  121  127 1   
   124  122  123 1   
   125  122  125 1   
   126  122  128 1   
   127  123  124 2   
   128  123  132 1   
   129  125  126 1   
   130  125  129 1   
   131  125  130 1   
   132  126  131 1   
   133  132  133 1   
   134  132  137 1   
   135  133  134 1   
   136  133  136 1   
   137  133  138 1   
   138  134  135 2   
   139  134  142 1   
   140  136  139 1   
   141  136  140 1   
   142  136  141 1   
   143  142  143 1   
   144  142  147 1   
   145  143  144 1   
   146  143  146 1   
   147  143  148 1   
   148  144  145 2   
   149  144  152 1   
   150  146  149 1   
   151  146  150 1   
   152  146  151 1   
   153  152  153 1   
   154  152  161 1   
   155  153  154 1   
   156  153  156 1   
   157  153  162 1   
   158  154  155 2   
   159  154  167 1   
   160  156  157 1   
   161  156  163 1   
   162  156  164 1   
   163  157  158 1   
   164  157  165 1   
   165  157  166 1   
   166  158  159 1   
   167  158  160 1   
   168  167  168 1   
   169  167  172 1   
   170  168  169 1   
   171  168  170 1   
   172  168  171 1   
   173  174  175 1   
   174  174  176 1   
   175  177  178 1   
   176  177  179 1   
@<TRIPOS>SUBSTRUCTURE
     1 MOL         1 TEMP              0 ****  ****    0 ROOT
