@<TRIPOS>MOLECULE
MOL
  189   185     1     0     0
SMALL
resp


@<TRIPOS>ATOM
      1 C1          0.2570    3.4040    4.3580 c3        1 MOL     -0.311880
      2 C2         -0.4720    3.0600    3.0860 c         1 MOL      0.670793
      3 O1         -0.1220    3.4770    2.0050 o         1 MOL     -0.589598
      4 H1          0.2690    4.4870    4.4880 hc        1 MOL      0.085993
      5 H2         -0.2510    2.9440    5.2050 hc        1 MOL      0.085993
      6 H3          1.2810    3.0340    4.3020 hc        1 MOL      0.085993
      7 N1         -1.5170    2.2610    3.1840 n         1 MOL     -0.601827
      8 C3         -2.1800    1.6040    2.0980 c3        1 MOL      0.245865
      9 C4         -3.3050    2.5090    1.5280 c         1 MOL      0.394154
     10 O2         -4.4910    2.2190    1.6580 o         1 MOL     -0.448002
     11 C5         -2.7550    0.2670    2.5090 c3        1 MOL     -0.027906
     12 C6         -3.5780   -0.4430    1.4380 c         1 MOL      0.539415
     13 O3         -3.1000   -0.4880    0.3060 o         1 MOL     -0.639727
     14 O4         -4.5420   -1.1720    1.8310 o         1 MOL     -0.639727
     15 H4         -1.7560    1.9320    4.1020 hn        1 MOL      0.318223
     16 H5         -1.5120    1.2710    1.2950 h1        1 MOL      0.008545
     17 H6         -3.3550    0.5350    3.3740 hc        1 MOL     -0.019563
     18 H7         -2.0080   -0.3780    2.9520 hc        1 MOL     -0.019563
     19 N2         -2.7600    3.5770    0.9590 n         1 MOL     -0.314761
     20 C7         -3.4980    4.7360    0.3410 c3        1 MOL     -0.067316
     21 C8         -4.2540    4.5050   -0.9700 c         1 MOL      0.504308
     22 O5         -5.0140    5.3960   -1.4560 o         1 MOL     -0.583673
     23 C9         -2.6340    6.0430    0.1650 c3        1 MOL     -0.259782
     24 C10        -2.6080    6.7830    1.4860 c3        1 MOL      0.212975
     25 C11        -3.9160    7.5380    1.9140 c3        1 MOL     -0.017732
     26 C12        -3.5270    8.5660    3.0140 c3        1 MOL      0.064542
     27 N3         -4.6870    9.2470    3.7480 n4        1 MOL     -0.407277
     28 H8         -1.7620    3.6730    1.0930 hn        1 MOL      0.278831
     29 H9         -4.3310    4.9150    1.0280 h1        1 MOL      0.097286
     30 H10        -3.0600    6.6710   -0.6230 hc        1 MOL      0.098469
     31 H11        -1.6380    5.7500   -0.1560 hc        1 MOL      0.098469
     32 H12        -1.8260    7.5450    1.4530 hc        1 MOL     -0.036840
     33 H13        -2.3340    6.0690    2.2650 hc        1 MOL     -0.036840
     34 H14        -4.6930    6.8110    2.1180 hc        1 MOL      0.029499
     35 H15        -4.2110    8.0470    0.9920 hc        1 MOL      0.029499
     36 H16        -2.8500    9.3240    2.6020 hx        1 MOL      0.067977
     37 H17        -2.9590    7.9370    3.6970 hx        1 MOL      0.067977
     38 H18        -4.3930   10.0530    4.2820 hn        1 MOL      0.339937
     39 H19        -5.3880    9.7150    3.1720 hn        1 MOL      0.339937
     40 H20        -5.0980    8.6120    4.4130 hn        1 MOL      0.339937
     41 N4         -4.1830    3.2900   -1.4940 n         1 MOL     -0.333543
     42 C13        -4.9060    2.6750   -2.6700 c3        1 MOL      0.076757
     43 C14        -5.8150    1.4420   -2.2960 c         1 MOL      0.378611
     44 O6         -6.3410    0.7790   -3.1700 o         1 MOL     -0.490462
     45 C15        -3.9590    2.3230   -3.8660 c3        1 MOL     -0.223342
     46 C16        -2.7570    1.4220   -3.6100 c         1 MOL      0.808112
     47 O7         -2.7000    0.6210   -2.6480 o         1 MOL     -0.740998
     48 O8         -1.8330    1.3210   -4.4520 o         1 MOL     -0.740998
     49 H21        -3.4540    2.7070   -1.1040 hn        1 MOL      0.235092
     50 H22        -5.5980    3.3860   -3.1200 h1        1 MOL      0.093698
     51 H23        -3.5910    3.2480   -4.3190 hc        1 MOL      0.052139
     52 H24        -4.5700    1.9140   -4.6760 hc        1 MOL      0.052139
     53 N5         -5.8610    1.2280   -0.9950 n         1 MOL     -0.182287
     54 C17        -6.8980    0.3840   -0.2950 c3        1 MOL      0.022822
     55 C18        -6.9960   -1.1330   -0.6910 c         1 MOL      0.397448
     56 O9         -8.0920   -1.6850   -0.8190 o         1 MOL     -0.584515
     57 H25        -5.2630    1.6880   -0.3180 hn        1 MOL      0.105761
     58 H26        -7.8450    0.8830   -0.4920 h1        1 MOL      0.048988
     59 H27        -6.7510    0.5210    0.7750 h1        1 MOL      0.048988
     60 N6         -5.9140   -1.8010   -1.0620 n         1 MOL     -0.061142
     61 C19        -5.9740   -3.1890   -1.6420 c3        1 MOL     -0.040256
     62 C20        -5.7190   -4.2500   -0.5770 c         1 MOL      0.454130
     63 O10        -5.8650   -5.4080   -0.8430 o         1 MOL     -0.522758
     64 C21        -4.9190   -3.2770   -2.7680 c3        1 MOL     -0.355269
     65 C22        -3.4660   -3.1640   -2.3310 c         1 MOL      0.830962
     66 O11        -2.7080   -2.6370   -3.1400 o         1 MOL     -0.748855
     67 O12        -3.0040   -3.3520   -1.1990 o         1 MOL     -0.748855
     68 H28        -5.0590   -1.2650   -0.9500 hn        1 MOL      0.146549
     69 H29        -6.9920   -3.4260   -1.9670 h1        1 MOL      0.136512
     70 H30        -5.0920   -2.5090   -3.5230 hc        1 MOL      0.110464
     71 H31        -5.1230   -4.2680   -3.1680 hc        1 MOL      0.110464
     72 N7         -5.5200   -3.8450    0.6960 n         1 MOL     -0.304277
     73 C23        -5.3190   -4.7320    1.8820 c3        1 MOL     -0.056594
     74 C24        -3.8520   -5.1410    2.2020 c         1 MOL      0.445173
     75 O13        -3.5160   -6.0400    2.9950 o         1 MOL     -0.562166
     76 H32        -5.5670   -2.8560    0.9030 hn        1 MOL      0.230038
     77 H33        -5.9270   -5.6170    1.7170 h1        1 MOL      0.079151
     78 H34        -5.7610   -4.2650    2.7540 h1        1 MOL      0.079151
     79 N8         -2.9020   -4.5510    1.4230 n         1 MOL     -0.109292
     80 C25        -1.5290   -4.9210    1.4420 c3        1 MOL     -0.314546
     81 C26        -0.6170   -3.7300    1.4130 c         1 MOL      0.746642
     82 O14        -0.9570   -2.7680    0.7750 o         1 MOL     -0.611884
     83 C27        -1.1070   -5.9540    0.3900 c3        1 MOL      0.602147
     84 C28        -1.3870   -7.4630    0.8190 c3        1 MOL     -0.352633
     85 O15        -1.7100   -5.6320   -0.8470 oh        1 MOL     -0.658975
     86 H35        -3.2340   -3.8060    0.8240 hn        1 MOL      0.192716
     87 H36        -1.3410   -5.3840    2.4090 h1        1 MOL      0.089295
     88 H37        -0.0410   -5.7850    0.2710 h1        1 MOL     -0.101489
     89 H38        -2.0010   -4.7270   -0.7080 ho        1 MOL      0.412895
     90 H39        -1.0470   -7.5870    1.8460 hc        1 MOL      0.086385
     91 H40        -2.4750   -7.5660    0.8430 hc        1 MOL      0.086385
     92 H41        -0.7700   -8.1610    0.2670 hc        1 MOL      0.086385
     93 N9          0.4940   -3.7420    2.1260 n         1 MOL     -0.624802
     94 C29         1.5590   -2.7000    2.3720 c3        1 MOL      0.004362
     95 C30         2.7780   -3.0710    1.4980 c         1 MOL      0.672683
     96 O16         3.4410   -4.1210    1.7180 o         1 MOL     -0.588328
     97 C31         1.7640   -2.3530    3.8790 c3        1 MOL      0.213420
     98 C32         0.5860   -1.5150    4.4360 c3        1 MOL     -0.034002
     99 C33         3.1150   -1.7150    4.2920 c3        1 MOL     -0.404506
    100 C34         0.4530   -1.5420    5.9740 c3        1 MOL     -0.192310
    101 H42         0.6330   -4.6110    2.6310 hn        1 MOL      0.290240
    102 H43         1.1600   -1.7720    1.9630 h1        1 MOL      0.045291
    103 H44         1.8420   -3.3340    4.3440 hc        1 MOL      0.017356
    104 H45        -0.3220   -1.9920    4.0690 hc        1 MOL      0.055805
    105 H46         0.6050   -0.4720    4.1260 hc        1 MOL      0.055805
    106 H47         2.9480   -0.6350    4.3620 hc        1 MOL      0.087391
    107 H48         3.3950   -2.1060    5.2690 hc        1 MOL      0.087391
    108 H49         3.8470   -1.9280    3.5080 hc        1 MOL      0.087391
    109 H50        -0.4680   -1.0840    6.3310 hc        1 MOL      0.047020
    110 H51         0.5040   -2.5710    6.3370 hc        1 MOL      0.047020
    111 H52         1.2270   -1.0290    6.5460 hc        1 MOL      0.047020
    112 N10         3.0940   -2.1700    0.5560 n         1 MOL     -0.375196
    113 C35         4.2080   -2.3590   -0.3200 c3        1 MOL     -0.027663
    114 C36         5.4630   -1.6470    0.1780 c         1 MOL      0.383184
    115 O17         5.3890   -0.6990    0.8990 o         1 MOL     -0.369873
    116 C37         3.9380   -1.8270   -1.6710 c3        1 MOL      0.148594
    117 C38         3.1110   -2.7870   -2.4960 c3        1 MOL     -0.449937
    118 O18         3.3710   -0.5220   -1.5240 oh        1 MOL     -0.289969
    119 H53         2.4970   -1.3650    0.4210 hn        1 MOL      0.351526
    120 H54         4.4270   -3.4170   -0.3510 h1        1 MOL      0.089183
    121 H55         4.8680   -1.8070   -2.2400 h1        1 MOL      0.087500
    122 H56         2.4870   -0.6620   -1.1880 ho        1 MOL      0.206878
    123 H57         2.0700   -2.6090   -2.2410 hc        1 MOL      0.136135
    124 H58         3.1520   -2.4230   -3.5290 hc        1 MOL      0.136135
    125 H59         3.2920   -3.8550   -2.4210 hc        1 MOL      0.136135
    126 N11         6.7230   -2.0500   -0.1700 n         1 MOL     -0.269509
    127 C39         7.9950   -1.3010    0.1530 c3        1 MOL     -0.216651
    128 C40         7.8710    0.1160   -0.3550 c         1 MOL      0.633983
    129 O19         8.3200    1.0670    0.2420 o         1 MOL     -0.520596
    130 C41         9.2160   -1.9850   -0.3530 c3        1 MOL      0.279420
    131 C42         9.5640   -3.4050    0.0550 c3        1 MOL     -0.256080
    132 O20         8.9050   -2.2050   -1.7530 oh        1 MOL     -0.673483
    133 H60         6.7600   -2.9220   -0.6810 hn        1 MOL      0.242016
    134 H61         8.1240   -1.2050    1.2340 h1        1 MOL      0.156157
    135 H62        10.0790   -1.3280   -0.2540 h1        1 MOL      0.057304
    136 H63         9.3550   -2.9670   -2.1350 ho        1 MOL      0.423577
    137 H64        10.2480   -4.0110   -0.5360 hc        1 MOL      0.077555
    138 H65         9.8460   -3.4290    1.1100 hc        1 MOL      0.077555
    139 H66         8.5990   -3.9100    0.0200 hc        1 MOL      0.077555
    140 N12         7.0920    0.3570   -1.4730 n         1 MOL     -0.372459
    141 C43         6.7570    1.7330   -1.9150 c3        1 MOL     -0.023975
    142 C44         5.8590    2.4580   -0.9080 c         1 MOL      0.503650
    143 O21         6.0230    3.6210   -0.6300 o         1 MOL     -0.564585
    144 C45         5.9710    1.4790   -3.2190 c3        1 MOL      0.038216
    145 C46         5.4110    2.6500   -4.0900 c3        1 MOL     -0.059188
    146 C47         4.0570    3.3140   -3.6290 c3        1 MOL     -0.013258
    147 C48         3.4240    4.2170   -4.7590 c3        1 MOL      0.035172
    148 N13         2.1250    4.7630   -4.2410 n4        1 MOL     -0.337255
    149 H67         6.6400   -0.4150   -1.9490 hn        1 MOL      0.202963
    150 H68         7.5780    2.4310   -2.0650 h1        1 MOL      0.092334
    151 H69         5.2390    0.6910   -3.0500 hc        1 MOL      0.034014
    152 H70         6.6590    0.9630   -3.8920 hc        1 MOL      0.034014
    153 H71         5.2760    2.2210   -5.0810 hc        1 MOL      0.026319
    154 H72         6.2120    3.3810   -4.2080 hc        1 MOL      0.026319
    155 H73         4.3600    3.9580   -2.8070 hc        1 MOL      0.047931
    156 H74         3.3580    2.5330   -3.3620 hc        1 MOL      0.047931
    157 H75         3.1560    3.6280   -5.6420 hx        1 MOL      0.080704
    158 H76         4.0880    5.0280   -5.0770 hx        1 MOL      0.080704
    159 H77         1.5410    3.9570   -4.0820 hn        1 MOL      0.321643
    160 H78         2.2630    5.2840   -3.3850 hn        1 MOL      0.321643
    161 H79         1.5610    5.2260   -4.9430 hn        1 MOL      0.321643
    162 N14         4.7880    1.8750   -0.4210 n         1 MOL      0.107824
    163 C49         3.9840    2.5050    0.6980 c3        1 MOL     -0.060645
    164 C50         4.7250    2.6750    2.0240 c         1 MOL      0.477615
    165 O22         4.5560    3.7680    2.5430 o         1 MOL     -0.546613
    166 C51         2.8320    1.6330    0.9270 c3        1 MOL      0.109118
    167 C52         1.8690    1.7280   -0.3730 c3        1 MOL      0.002247
    168 C53         0.7870    0.6870   -0.5300 c         1 MOL      0.883772
    169 O23         0.9490   -0.5470   -0.4690 o         1 MOL     -0.824649
    170 O24        -0.3510    1.0270   -0.9200 o         1 MOL     -0.824649
    171 H80         4.4950    0.9520   -0.7140 hn        1 MOL     -0.453460
    172 H81         3.5620    3.4390    0.3550 h1        1 MOL      0.078593
    173 H82         2.2680    1.8800    1.8320 hc        1 MOL     -0.042054
    174 H83         3.0720    0.5710    1.0030 hc        1 MOL     -0.042054
    175 H84         2.4730    1.8830   -1.2690 hc        1 MOL     -0.016437
    176 H85         1.3630    2.6990   -0.3370 hc        1 MOL     -0.016437
    177 N15         5.7440    1.8620    2.3770 n         1 MOL     -0.154516
    178 C54         6.6050    2.2060    3.4900 c3        1 MOL     -0.249323
    179 H86         6.6470    3.2910    3.5940 h1        1 MOL      0.102472
    180 H87         6.2080    1.7700    4.4060 h1        1 MOL      0.102472
    181 H88         7.6070    1.8210    3.3070 h1        1 MOL      0.102472
    182 H89         5.9590    1.0590    1.8000 hn        1 MOL      0.173930
    183 Ca1        -1.3500   -1.2280   -1.3820 Ca        1 MOL      1.819024
    184 O25        -0.0080   -3.7820   -2.0640 oh        1 MOL     -0.855983
    185 H90        -0.4770   -4.5570   -1.7740 ho        1 MOL      0.397409
    186 H91         0.2310   -3.9690   -2.9700 ho        1 MOL      0.397409
    187 O26        -0.3070   -0.8700   -3.9210 oh        1 MOL     -0.855983
    188 H92        -0.8300   -0.0950   -4.1100 ho        1 MOL      0.397409
    189 H93         0.0800   -1.1140   -4.7590 ho        1 MOL      0.397409
@<TRIPOS>BOND
     1    1    2 1   
     2    1    4 1   
     3    1    5 1   
     4    1    6 1   
     5    2    3 2   
     6    2    7 1   
     7    7    8 1   
     8    7   15 1   
     9    8    9 1   
    10    8   11 1   
    11    8   16 1   
    12    9   10 2   
    13    9   19 1   
    14   11   12 1   
    15   11   17 1   
    16   11   18 1   
    17   12   13 1   
    18   12   14 1   
    19   19   20 1   
    20   19   28 1   
    21   20   21 1   
    22   20   23 1   
    23   20   29 1   
    24   21   22 2   
    25   21   41 1   
    26   23   24 1   
    27   23   30 1   
    28   23   31 1   
    29   24   25 1   
    30   24   32 1   
    31   24   33 1   
    32   25   26 1   
    33   25   34 1   
    34   25   35 1   
    35   26   27 1   
    36   26   36 1   
    37   26   37 1   
    38   27   38 1   
    39   27   39 1   
    40   27   40 1   
    41   41   42 1   
    42   41   49 1   
    43   42   43 1   
    44   42   45 1   
    45   42   50 1   
    46   43   44 2   
    47   43   53 1   
    48   45   46 1   
    49   45   51 1   
    50   45   52 1   
    51   46   47 1   
    52   46   48 1   
    53   53   54 1   
    54   53   57 1   
    55   54   55 1   
    56   54   58 1   
    57   54   59 1   
    58   55   56 2   
    59   55   60 1   
    60   60   61 1   
    61   60   68 1   
    62   61   62 1   
    63   61   64 1   
    64   61   69 1   
    65   62   63 2   
    66   62   72 1   
    67   64   65 1   
    68   64   70 1   
    69   64   71 1   
    70   65   66 1   
    71   65   67 1   
    72   72   73 1   
    73   72   76 1   
    74   73   74 1   
    75   73   77 1   
    76   73   78 1   
    77   74   75 2   
    78   74   79 1   
    79   79   80 1   
    80   79   86 1   
    81   80   81 1   
    82   80   83 1   
    83   80   87 1   
    84   81   82 2   
    85   81   93 1   
    86   83   84 1   
    87   83   85 1   
    88   83   88 1   
    89   84   90 1   
    90   84   91 1   
    91   84   92 1   
    92   85   89 1   
    93   93   94 1   
    94   93  101 1   
    95   94   95 1   
    96   94   97 1   
    97   94  102 1   
    98   95   96 2   
    99   95  112 1   
   100   97   98 1   
   101   97   99 1   
   102   97  103 1   
   103   98  100 1   
   104   98  104 1   
   105   98  105 1   
   106   99  106 1   
   107   99  107 1   
   108   99  108 1   
   109  100  109 1   
   110  100  110 1   
   111  100  111 1   
   112  112  113 1   
   113  112  119 1   
   114  113  114 1   
   115  113  116 1   
   116  113  120 1   
   117  114  115 2   
   118  114  126 1   
   119  116  117 1   
   120  116  118 1   
   121  116  121 1   
   122  117  123 1   
   123  117  124 1   
   124  117  125 1   
   125  118  122 1   
   126  126  127 1   
   127  126  133 1   
   128  127  128 1   
   129  127  130 1   
   130  127  134 1   
   131  128  129 2   
   132  128  140 1   
   133  130  131 1   
   134  130  132 1   
   135  130  135 1   
   136  131  137 1   
   137  131  138 1   
   138  131  139 1   
   139  132  136 1   
   140  140  141 1   
   141  140  149 1   
   142  141  142 1   
   143  141  144 1   
   144  141  150 1   
   145  142  143 2   
   146  142  162 1   
   147  144  145 1   
   148  144  151 1   
   149  144  152 1   
   150  145  146 1   
   151  145  153 1   
   152  145  154 1   
   153  146  147 1   
   154  146  155 1   
   155  146  156 1   
   156  147  148 1   
   157  147  157 1   
   158  147  158 1   
   159  148  159 1   
   160  148  160 1   
   161  148  161 1   
   162  162  163 1   
   163  162  171 1   
   164  163  164 1   
   165  163  166 1   
   166  163  172 1   
   167  164  165 2   
   168  164  177 1   
   169  166  167 1   
   170  166  173 1   
   171  166  174 1   
   172  167  168 1   
   173  167  175 1   
   174  167  176 1   
   175  168  169 1   
   176  168  170 1   
   177  177  178 1   
   178  177  182 1   
   179  178  179 1   
   180  178  180 1   
   181  178  181 1   
   182  184  185 1   
   183  184  186 1   
   184  187  188 1   
   185  187  189 1   
@<TRIPOS>SUBSTRUCTURE
     1 MOL         1 TEMP              0 ****  ****    0 ROOT
