@<TRIPOS>MOLECULE
MOL
  179   176     1     0     0
SMALL
resp


@<TRIPOS>ATOM
      1 C1          2.3950    3.5620    5.1890 c3        1 MOL     -0.280907
      2 C2          1.7990    2.9640    3.8810 c         1 MOL      0.657860
      3 O1          2.5640    2.6510    3.0280 o         1 MOL     -0.574267
      4 H1          2.8130    2.7610    5.7960 hc        1 MOL      0.068924
      5 H2          3.1800    4.2750    4.9380 hc        1 MOL      0.068924
      6 H3          1.6080    4.0690    5.7480 hc        1 MOL      0.068924
      7 N1          0.4430    2.8080    3.8100 n         1 MOL     -0.477336
      8 C3         -0.3140    2.6370    2.5760 c3        1 MOL     -0.099370
      9 C4         -0.3990    3.9370    1.8780 c         1 MOL      0.465244
     10 O2         -1.0500    4.9070    2.3420 o         1 MOL     -0.548649
     11 C5         -1.7140    2.0620    2.8490 c3        1 MOL      0.019670
     12 C6         -2.4910    1.7590    1.6410 c         1 MOL      0.814957
     13 O3         -3.7080    1.5010    1.7120 o         1 MOL     -0.794689
     14 O4         -1.9590    1.8580    0.4880 o         1 MOL     -0.794689
     15 H4         -0.1070    2.9370    4.6440 hn        1 MOL      0.316438
     16 H5          0.1810    1.8850    1.9640 h1        1 MOL      0.008839
     17 H6         -2.2910    2.7450    3.4620 hc        1 MOL      0.008459
     18 H7         -1.5260    1.2000    3.4850 hc        1 MOL      0.008459
     19 N2          0.2690    4.0830    0.7520 n         1 MOL     -0.311615
     20 C7          0.4650    5.3140   -0.0230 c3        1 MOL      0.142471
     21 C8         -0.7230    5.6540   -0.9460 c         1 MOL      0.422477
     22 O5         -1.1490    6.7820   -0.8630 o         1 MOL     -0.575889
     23 C9          1.7730    5.1440   -0.7670 c3        1 MOL     -0.289645
     24 C10         2.9830    5.3460    0.2280 c3        1 MOL      0.287823
     25 C11         4.2640    5.6740   -0.5020 c3        1 MOL     -0.121116
     26 C12         5.5150    6.0390    0.3160 c3        1 MOL      0.013647
     27 N3          5.3470    7.3730    0.9310 n4        1 MOL     -0.333640
     28 H8          0.7590    3.2750    0.4090 hn        1 MOL      0.336987
     29 H9          0.6150    6.1670    0.6400 h1        1 MOL      0.034938
     30 H10         1.8210    5.8740   -1.5770 hc        1 MOL      0.071134
     31 H11         1.7490    4.1170   -1.1410 hc        1 MOL      0.071134
     32 H12         3.0200    4.4280    0.8040 hc        1 MOL     -0.048856
     33 H13         2.7170    6.1770    0.8760 hc        1 MOL     -0.048856
     34 H14         4.0790    6.5510   -1.1230 hc        1 MOL      0.050960
     35 H15         4.6650    4.8160   -1.0490 hc        1 MOL      0.050960
     36 H16         6.3150    6.1060   -0.4190 hx        1 MOL      0.103961
     37 H17         5.8160    5.3390    1.0900 hx        1 MOL      0.103961
     38 H18         4.6020    7.4350    1.6030 hn        1 MOL      0.314917
     39 H19         6.1870    7.6500    1.4190 hn        1 MOL      0.314917
     40 H20         5.1990    8.0920    0.2380 hn        1 MOL      0.314917
     41 N4         -1.3460    4.7400   -1.5870 n         1 MOL     -0.191386
     42 C13        -2.5530    4.8060   -2.5360 c3        1 MOL      0.018388
     43 C14        -3.8770    4.5070   -1.8970 c         1 MOL      0.523852
     44 O6         -4.9140    4.5100   -2.6240 o         1 MOL     -0.542199
     45 C15        -2.3160    3.9780   -3.7670 c3        1 MOL     -0.306670
     46 C16        -1.9690    2.5760   -3.3540 c         1 MOL      0.827970
     47 O7         -2.7700    1.6800   -3.0000 o         1 MOL     -0.767030
     48 O8         -0.7550    2.3790   -3.0750 o         1 MOL     -0.767030
     49 H21        -0.8380    3.8690   -1.7110 hn        1 MOL      0.141616
     50 H22        -2.6890    5.8450   -2.8210 h1        1 MOL      0.108137
     51 H23        -1.5580    4.3910   -4.4260 hc        1 MOL      0.088744
     52 H24        -3.2340    3.9080   -4.3420 hc        1 MOL      0.088744
     53 N5         -3.8560    4.2240   -0.5860 n         1 MOL     -0.429015
     54 C17        -5.1120    4.0350    0.1620 c3        1 MOL     -0.074584
     55 C18        -5.9900    2.9460   -0.2460 c         1 MOL      0.454226
     56 O9         -7.1180    2.8680    0.2340 o         1 MOL     -0.574085
     57 H25        -3.0660    3.8880   -0.0620 hn        1 MOL      0.340968
     58 H26        -5.7360    4.9260    0.2420 h1        1 MOL      0.104423
     59 H27        -4.8420    3.8950    1.2090 h1        1 MOL      0.104423
     60 N6         -5.4820    1.9570   -1.0140 n         1 MOL     -0.083928
     61 C19        -6.2730    0.8040   -1.2930 c3        1 MOL     -0.170341
     62 C20        -6.5490   -0.2190   -0.1730 c         1 MOL      0.403197
     63 O10        -7.2080   -1.2290   -0.4700 o         1 MOL     -0.499929
     64 C21        -5.6270    0.0800   -2.5050 c3        1 MOL     -0.143761
     65 C22        -4.4560   -0.7780   -2.1320 c         1 MOL      0.588121
     66 N7         -4.2060   -1.7140   -2.9550 n         1 MOL     -0.663932
     67 O11        -3.6620   -0.4660   -1.2490 o         1 MOL     -0.518989
     68 H28        -4.5640    2.0890   -1.4190 hn        1 MOL      0.164100
     69 H29        -7.2380    1.1880   -1.6230 h1        1 MOL      0.138704
     70 H30        -5.2610    0.8330   -3.2120 hc        1 MOL      0.072207
     71 H31        -6.3600   -0.5230   -3.0400 hc        1 MOL      0.072207
     72 H32        -4.8850   -1.8670   -3.6900 hn        1 MOL      0.325667
     73 H33        -3.3460   -2.2220   -2.8590 hn        1 MOL      0.325667
     74 N8         -6.0490   -0.0510    1.0940 n         1 MOL     -0.193063
     75 C23        -6.2650   -0.9570    2.1880 c3        1 MOL     -0.370309
     76 C24        -5.1670   -2.0740    2.2840 c         1 MOL      0.606748
     77 O12        -5.1400   -2.8760    3.2210 o         1 MOL     -0.593578
     78 H34        -5.4690    0.7750    1.2100 hn        1 MOL      0.326233
     79 H35        -7.2000   -1.5040    2.0850 h1        1 MOL      0.164631
     80 H36        -6.3210   -0.3220    3.0760 h1        1 MOL      0.164631
     81 N9         -4.2290   -2.1160    1.3210 n         1 MOL     -0.282737
     82 C25        -3.1270   -3.0910    1.3530 c3        1 MOL      0.092045
     83 C26        -1.7740   -2.4360    1.3190 c         1 MOL      0.588553
     84 O13        -1.6050   -1.4950    0.5460 o         1 MOL     -0.691673
     85 C27        -3.2970   -4.0170    0.1880 c3        1 MOL      0.091567
     86 C28        -4.6030   -4.7770    0.1420 ca        1 MOL      0.069514
     87 C29        -5.5940   -4.4940   -0.8120 ca        1 MOL     -0.300754
     88 C30        -4.8300   -5.8300    1.1010 ca        1 MOL     -0.300754
     89 C31        -6.8270   -5.2330   -0.7660 ca        1 MOL     -0.106947
     90 C32        -6.1110   -6.4830    1.2200 ca        1 MOL     -0.106947
     91 C33        -7.0960   -6.1910    0.2360 ca        1 MOL      0.247542
     92 O14        -8.3120   -6.8030    0.3070 oh        1 MOL     -0.524612
     93 H37        -4.2310   -1.4170    0.5920 hn        1 MOL      0.218334
     94 H38        -3.2020   -3.7060    2.2420 h1        1 MOL      0.036563
     95 H39        -2.4860   -4.7350    0.3340 hc        1 MOL     -0.027809
     96 H40        -3.1230   -3.5230   -0.7710 hc        1 MOL     -0.027809
     97 H41        -5.5130   -3.6420   -1.4750 ha        1 MOL      0.167491
     98 H42        -4.0570   -5.9760    1.8400 ha        1 MOL      0.167491
     99 H43        -7.5530   -5.0160   -1.5430 ha        1 MOL      0.113080
    100 H44        -6.2230   -7.2790    1.9460 ha        1 MOL      0.113080
    101 H45        -8.5500   -7.3060    1.0930 ho        1 MOL      0.396523
    102 N10        -0.7600   -2.8880    2.0220 n         1 MOL     -0.537160
    103 C34         0.5900   -2.4000    1.8440 c3        1 MOL      0.005580
    104 C35         1.3410   -3.5040    1.1690 c         1 MOL      0.649710
    105 O15         1.3410   -4.6240    1.5850 o         1 MOL     -0.570737
    106 C36         1.1240   -2.0490    3.2660 c3        1 MOL     -0.008460
    107 C37         0.5240   -0.7350    3.8990 c3        1 MOL      0.019215
    108 C38         2.6530   -1.8960    3.1240 c3        1 MOL     -0.087864
    109 C39         0.9830   -0.4220    5.3610 c3        1 MOL     -0.210712
    110 H46        -0.8600   -3.5790    2.7440 hn        1 MOL      0.315449
    111 H47         0.7420   -1.4550    1.3160 h1        1 MOL      0.120473
    112 H48         1.0180   -2.8780    3.9590 hc        1 MOL      0.043403
    113 H49        -0.5530   -0.8120    3.7840 hc        1 MOL      0.037051
    114 H50         0.8110    0.0520    3.2010 hc        1 MOL      0.037051
    115 H51         2.9350   -1.2820    2.2710 hc        1 MOL      0.014459
    116 H52         3.2170   -1.3990    3.9230 hc        1 MOL      0.014459
    117 H53         3.1530   -2.8580    3.0280 hc        1 MOL      0.014459
    118 H54         0.5890    0.4980    5.7990 hc        1 MOL      0.057568
    119 H55         0.6540   -1.2460    5.9800 hc        1 MOL      0.057568
    120 H56         2.0690   -0.4960    5.3460 hc        1 MOL      0.057568
    121 N11         1.9980   -3.0940    0.0710 n         1 MOL     -0.246541
    122 C40         2.8920   -3.8820   -0.7920 c3        1 MOL     -0.029653
    123 C41         4.3900   -3.8490   -0.3970 c         1 MOL      0.342544
    124 O16         4.8510   -2.8790    0.1550 o         1 MOL     -0.319605
    125 C42         2.7240   -3.4740   -2.2470 c3        1 MOL     -0.048462
    126 O17         3.0050   -2.0970   -2.2760 oh        1 MOL     -0.509809
    127 H57         1.9570   -2.1130   -0.1800 hn        1 MOL      0.115216
    128 H58         2.6120   -4.9320   -0.7400 h1        1 MOL      0.054997
    129 H59         1.6960   -3.5840   -2.5880 h1        1 MOL      0.072650
    130 H60         3.4920   -3.9920   -2.8240 h1        1 MOL      0.072650
    131 H61         2.2960   -1.5900   -1.8560 ho        1 MOL      0.340769
    132 N12         5.2240   -4.8790   -0.6940 n         1 MOL     -0.319298
    133 C43         6.6720   -5.0480   -0.5630 c3        1 MOL     -0.021788
    134 C44         7.4100   -3.7920   -1.2120 c         1 MOL      0.512626
    135 O18         8.4380   -3.3440   -0.7820 o         1 MOL     -0.502474
    136 C45         7.1830   -6.4490   -1.0950 c3        1 MOL     -0.288728
    137 H62         4.7270   -5.6580   -1.1010 hn        1 MOL      0.254132
    138 H63         6.8100   -4.9920    0.5180 h1        1 MOL      0.115578
    139 H64         6.7590   -7.3130   -0.5700 hc        1 MOL      0.102059
    140 H65         6.9840   -6.5130   -2.1700 hc        1 MOL      0.102059
    141 H66         8.2590   -6.3810   -0.9830 hc        1 MOL      0.102059
    142 N13         6.7100   -3.1530   -2.1620 n         1 MOL     -0.348762
    143 C46         7.1970   -1.8930   -2.7360 c3        1 MOL      0.015434
    144 C47         7.0270   -0.6220   -1.8240 c         1 MOL      0.324119
    145 O19         7.8080    0.3710   -1.8940 o         1 MOL     -0.519842
    146 C48         6.3570   -1.5950   -3.9890 c3        1 MOL     -0.168800
    147 H67         5.9870   -3.6690   -2.6410 hn        1 MOL      0.264167
    148 H68         8.2700   -1.9920   -2.9140 h1        1 MOL      0.097826
    149 H69         6.2520   -2.5300   -4.5250 hc        1 MOL      0.052414
    150 H70         5.3480   -1.2580   -3.7490 hc        1 MOL      0.052414
    151 H71         6.7920   -0.8870   -4.6980 hc        1 MOL      0.052414
    152 N14         5.9640   -0.6820   -1.0210 n         1 MOL      0.104166
    153 C49         5.5680    0.3930   -0.1070 c3        1 MOL     -0.403232
    154 C50         6.2380    0.3220    1.2670 c         1 MOL      0.528868
    155 O20         6.4700    1.3310    1.9130 o         1 MOL     -0.544868
    156 C51         4.0160    0.4550    0.0490 c3        1 MOL      0.235867
    157 C52         3.2260    0.9150   -1.1630 c3        1 MOL     -0.023761
    158 C53         1.7260    0.6530   -0.9420 c         1 MOL      0.553523
    159 O21         0.9430    1.5350   -0.6120 o         1 MOL     -0.650291
    160 O22         1.2440   -0.5250   -1.0910 o         1 MOL     -0.650291
    161 H72         5.4640   -1.5490   -0.9080 hn        1 MOL      0.098396
    162 H73         5.8320    1.3080   -0.6270 h1        1 MOL      0.142565
    163 H74         3.7650    1.2750    0.7330 hc        1 MOL      0.016103
    164 H75         3.6170   -0.4610    0.4600 hc        1 MOL      0.016103
    165 H76         3.6450    0.3340   -1.9880 hc        1 MOL     -0.014374
    166 H77         3.3960    1.9710   -1.3570 hc        1 MOL     -0.014374
    167 N15         6.6270   -0.9010    1.6650 n         1 MOL     -0.152726
    168 C54         7.5310   -1.1450    2.7900 c3        1 MOL     -0.279411
    169 H78         7.1760   -2.0020    3.3610 h1        1 MOL      0.115430
    170 H79         8.5330   -1.3490    2.4130 h1        1 MOL      0.115430
    171 H80         7.5560   -0.2660    3.4340 h1        1 MOL      0.115430
    172 H81         6.2580   -1.7050    1.1710 hn        1 MOL      0.126724
    173 Ca1        -1.1960    0.3410   -1.4360 Ca        1 MOL      1.745266
    174 O23        -1.2410   -2.1220   -2.6830 oh        1 MOL     -0.757901
    175 H82        -0.9830   -3.0280   -2.4900 ho        1 MOL      0.386479
    176 H83        -1.0410   -2.0050   -3.6090 ho        1 MOL      0.386479
    177 O24        -0.0210   -0.3710   -4.3300 oh        1 MOL     -0.757901
    178 H84         0.9090   -0.5760   -4.2900 ho        1 MOL      0.386479
    179 H85        -0.1520   -0.0170   -5.2070 ho        1 MOL      0.386479
@<TRIPOS>BOND
     1    1    2 1   
     2    1    4 1   
     3    1    5 1   
     4    1    6 1   
     5    2    3 2   
     6    2    7 1   
     7    7    8 1   
     8    7   15 1   
     9    8    9 1   
    10    8   11 1   
    11    8   16 1   
    12    9   10 2   
    13    9   19 1   
    14   11   12 1   
    15   11   17 1   
    16   11   18 1   
    17   12   13 1   
    18   12   14 1   
    19   19   20 1   
    20   19   28 1   
    21   20   21 1   
    22   20   23 1   
    23   20   29 1   
    24   21   22 2   
    25   21   41 1   
    26   23   24 1   
    27   23   30 1   
    28   23   31 1   
    29   24   25 1   
    30   24   32 1   
    31   24   33 1   
    32   25   26 1   
    33   25   34 1   
    34   25   35 1   
    35   26   27 1   
    36   26   36 1   
    37   26   37 1   
    38   27   38 1   
    39   27   39 1   
    40   27   40 1   
    41   41   42 1   
    42   41   49 1   
    43   42   43 1   
    44   42   45 1   
    45   42   50 1   
    46   43   44 2   
    47   43   53 1   
    48   45   46 1   
    49   45   51 1   
    50   45   52 1   
    51   46   47 1   
    52   46   48 1   
    53   53   54 1   
    54   53   57 1   
    55   54   55 1   
    56   54   58 1   
    57   54   59 1   
    58   55   56 2   
    59   55   60 1   
    60   60   61 1   
    61   60   68 1   
    62   61   62 1   
    63   61   64 1   
    64   61   69 1   
    65   62   63 2   
    66   62   74 1   
    67   64   65 1   
    68   64   70 1   
    69   64   71 1   
    70   65   66 1   
    71   65   67 2   
    72   66   72 1   
    73   66   73 1   
    74   74   75 1   
    75   74   78 1   
    76   75   76 1   
    77   75   79 1   
    78   75   80 1   
    79   76   77 2   
    80   76   81 1   
    81   81   82 1   
    82   81   93 1   
    83   82   83 1   
    84   82   85 1   
    85   82   94 1   
    86   83   84 2   
    87   83  102 1   
    88   85   86 1   
    89   85   95 1   
    90   85   96 1   
    91   86   87 ar  
    92   86   88 ar  
    93   87   89 ar  
    94   87   97 1   
    95   88   90 ar  
    96   88   98 1   
    97   89   91 ar  
    98   89   99 1   
    99   90   91 ar  
   100   90  100 1   
   101   91   92 1   
   102   92  101 1   
   103  102  103 1   
   104  102  110 1   
   105  103  104 1   
   106  103  106 1   
   107  103  111 1   
   108  104  105 2   
   109  104  121 1   
   110  106  107 1   
   111  106  108 1   
   112  106  112 1   
   113  107  109 1   
   114  107  113 1   
   115  107  114 1   
   116  108  115 1   
   117  108  116 1   
   118  108  117 1   
   119  109  118 1   
   120  109  119 1   
   121  109  120 1   
   122  121  122 1   
   123  121  127 1   
   124  122  123 1   
   125  122  125 1   
   126  122  128 1   
   127  123  124 2   
   128  123  132 1   
   129  125  126 1   
   130  125  129 1   
   131  125  130 1   
   132  126  131 1   
   133  132  133 1   
   134  132  137 1   
   135  133  134 1   
   136  133  136 1   
   137  133  138 1   
   138  134  135 2   
   139  134  142 1   
   140  136  139 1   
   141  136  140 1   
   142  136  141 1   
   143  142  143 1   
   144  142  147 1   
   145  143  144 1   
   146  143  146 1   
   147  143  148 1   
   148  144  145 2   
   149  144  152 1   
   150  146  149 1   
   151  146  150 1   
   152  146  151 1   
   153  152  153 1   
   154  152  161 1   
   155  153  154 1   
   156  153  156 1   
   157  153  162 1   
   158  154  155 2   
   159  154  167 1   
   160  156  157 1   
   161  156  163 1   
   162  156  164 1   
   163  157  158 1   
   164  157  165 1   
   165  157  166 1   
   166  158  159 1   
   167  158  160 1   
   168  167  168 1   
   169  167  172 1   
   170  168  169 1   
   171  168  170 1   
   172  168  171 1   
   173  174  175 1   
   174  174  176 1   
   175  177  178 1   
   176  177  179 1   
@<TRIPOS>SUBSTRUCTURE
     1 MOL         1 TEMP              0 ****  ****    0 ROOT
