@<TRIPOS>MOLECULE
MOL
  175   173     1     0     0
SMALL
resp


@<TRIPOS>ATOM
      1 C1          0.4490    4.1180    5.4480 c3        1 MOL     -0.454500
      2 C2         -0.0930    3.9770    4.0280 c         1 MOL      0.744261
      3 O1          0.6730    4.1610    3.0800 o         1 MOL     -0.571114
      4 H1          0.6380    5.1710    5.6620 hc        1 MOL      0.108683
      5 H2         -0.2820    3.7300    6.1580 hc        1 MOL      0.108683
      6 H3          1.3780    3.5570    5.5400 hc        1 MOL      0.108683
      7 N1         -1.3650    3.7270    3.9010 n         1 MOL     -0.674797
      8 C3         -1.9680    3.4890    2.6290 c3        1 MOL      0.149831
      9 C4         -1.9600    4.6830    1.5860 c         1 MOL      0.599266
     10 O2         -2.0880    5.8540    1.9020 o         1 MOL     -0.573476
     11 C5         -3.5010    3.0970    2.8320 c3        1 MOL     -0.403640
     12 C6         -4.2230    2.8260    1.4870 c         1 MOL      0.694031
     13 O3         -3.6750    1.9710    0.7130 o         1 MOL     -0.609489
     14 O4         -5.3190    3.4120    1.3200 o         1 MOL     -0.609489
     15 H4         -1.9340    3.9150    4.7100 hn        1 MOL      0.356287
     16 H5         -1.5340    2.5970    2.1680 h1        1 MOL      0.154114
     17 H6         -4.0080    3.9490    3.2950 hc        1 MOL      0.088622
     18 H7         -3.6980    2.2090    3.4240 hc        1 MOL      0.088622
     19 N2         -1.8820    4.3040    0.2810 n         1 MOL     -0.460086
     20 C7         -1.9870    5.1950   -0.8710 c3        1 MOL      0.342188
     21 C8         -2.9700    4.8380   -2.0040 c         1 MOL      0.435986
     22 O5         -2.9600    5.5100   -2.9810 o         1 MOL     -0.544265
     23 C9         -0.5370    5.4540   -1.4110 c3        1 MOL     -0.361583
     24 H8         -1.6290    3.3600    0.0310 hn        1 MOL      0.230478
     25 H9         -2.4290    6.1460   -0.5650 h1        1 MOL      0.001678
     26 H10        -0.0010    5.5360   -0.4640 hc        1 MOL      0.083247
     27 H11        -0.0430    4.6390   -1.9470 hc        1 MOL      0.083247
     28 H12        -0.5350    6.3700   -1.9880 hc        1 MOL      0.083247
     29 N3         -3.7580    3.7520   -1.8520 n         1 MOL     -0.234131
     30 C10        -4.6610    3.2060   -2.8850 c3        1 MOL      0.044266
     31 C11        -5.8350    2.3320   -2.3130 c         1 MOL      0.319953
     32 O6         -6.6940    1.9020   -3.0870 o         1 MOL     -0.549629
     33 C12        -3.9280    2.2910   -3.9600 c3        1 MOL     -0.050037
     34 C13        -3.1940    1.1440   -3.3060 c         1 MOL      0.668646
     35 O7         -3.7200    0.5000   -2.3730 o         1 MOL     -0.674693
     36 O8         -1.9770    1.0140   -3.5460 o         1 MOL     -0.674693
     37 H13        -3.8050    3.2550   -0.9730 hn        1 MOL      0.083223
     38 H14        -5.1060    4.0260   -3.4570 h1        1 MOL      0.066098
     39 H15        -3.2750    2.8870   -4.5920 hc        1 MOL      0.014396
     40 H16        -4.6240    1.8130   -4.6560 hc        1 MOL      0.014396
     41 N4         -5.9170    2.0180   -0.9850 n         1 MOL      0.022075
     42 C14        -6.8670    1.3120   -0.2090 c3        1 MOL     -0.166992
     43 C15        -7.0800   -0.0460   -0.6510 c         1 MOL      0.522682
     44 O9         -8.1800   -0.5360   -0.3480 o         1 MOL     -0.640529
     45 H17        -5.1720    2.3940   -0.4130 hn        1 MOL     -0.021845
     46 H18        -7.7380    1.9610   -0.2940 h1        1 MOL      0.099647
     47 H19        -6.6440    1.3890    0.8500 h1        1 MOL      0.099647
     48 N5         -6.2110   -0.7020   -1.4180 n         1 MOL     -0.168822
     49 C16        -6.2500   -2.0740   -1.9700 c3        1 MOL      0.067619
     50 C17        -6.1460   -3.3040   -0.9690 c         1 MOL      0.428119
     51 O10        -5.9960   -4.4580   -1.3160 o         1 MOL     -0.488272
     52 C18        -5.2560   -2.0930   -3.1320 c3        1 MOL     -0.391805
     53 C19        -3.7400   -2.2770   -2.7390 c         1 MOL      0.555913
     54 N6         -2.8590   -2.3250   -3.6640 n         1 MOL     -0.555676
     55 O11        -3.4160   -2.3140   -1.5590 o         1 MOL     -0.501253
     56 H20        -5.3740   -0.2090   -1.7320 hn        1 MOL      0.108357
     57 H21        -7.2090   -2.2850   -2.4480 h1        1 MOL      0.087526
     58 H22        -5.2960   -1.2220   -3.7860 hc        1 MOL      0.118250
     59 H23        -5.3900   -3.0800   -3.5730 hc        1 MOL      0.118250
     60 H24        -3.1030   -2.4270   -4.6390 hn        1 MOL      0.308987
     61 H25        -1.8870   -2.2960   -3.3950 hn        1 MOL      0.308987
     62 N7         -6.3940   -2.9720    0.3280 n         1 MOL     -0.322339
     63 C20        -6.3630   -3.7440    1.5970 c3        1 MOL     -0.177869
     64 C21        -4.9940   -4.1880    2.1070 c         1 MOL      0.449634
     65 O12        -4.8430   -4.9580    3.0780 o         1 MOL     -0.588547
     66 H26        -6.5540   -1.9840    0.4160 hn        1 MOL      0.249652
     67 H27        -6.9540   -4.6590    1.4910 h1        1 MOL      0.116009
     68 H28        -6.8850   -3.1150    2.3130 h1        1 MOL      0.116009
     69 N8         -3.9670   -3.8390    1.4010 n         1 MOL     -0.084111
     70 C22        -2.6230   -4.3380    1.5430 c3        1 MOL     -0.208630
     71 C23        -1.5520   -3.2360    1.5630 c         1 MOL      0.593874
     72 O13        -1.7110   -2.2550    0.9250 o         1 MOL     -0.550021
     73 C24        -2.2620   -5.3360    0.4410 c3        1 MOL      0.583607
     74 C25        -3.0570   -6.5970    0.5360 c3        1 MOL     -0.598424
     75 O14        -2.3280   -4.9540   -0.8840 oh        1 MOL     -0.598220
     76 H29        -4.1600   -3.3580    0.5270 hn        1 MOL      0.153478
     77 H30        -2.4140   -4.8390    2.4860 h1        1 MOL      0.080749
     78 H31        -1.1940   -5.5060    0.5430 h1        1 MOL     -0.068009
     79 H32        -2.0570   -4.0400   -1.0290 ho        1 MOL      0.350846
     80 H33        -4.0900   -6.5780    0.1990 hc        1 MOL      0.143918
     81 H34        -2.6050   -7.3640   -0.0940 hc        1 MOL      0.143918
     82 H35        -3.0570   -6.9000    1.5860 hc        1 MOL      0.143918
     83 N9         -0.4970   -3.4430    2.3160 n         1 MOL     -0.457263
     84 C26         0.7750   -2.5990    2.2530 c3        1 MOL      0.111605
     85 C27         1.4700   -2.8240    0.9330 c         1 MOL      0.469546
     86 O15         1.7510   -3.9950    0.5800 o         1 MOL     -0.586516
     87 C28         1.5810   -2.7470    3.5050 c3        1 MOL      0.009197
     88 C29         1.2410   -1.6830    4.5120 c3        1 MOL     -0.130722
     89 C30         3.1210   -2.7210    3.2380 c3        1 MOL     -0.166130
     90 C31         1.9640   -1.8570    5.8680 c3        1 MOL      0.038480
     91 H36        -0.3250   -4.2710    2.8600 hn        1 MOL      0.255341
     92 H37         0.4610   -1.5590    2.2230 h1        1 MOL     -0.048258
     93 H38         1.3590   -3.7290    3.9110 hc        1 MOL      0.044270
     94 H39         0.1580   -1.6530    4.5300 hc        1 MOL      0.052155
     95 H40         1.6060   -0.6960    4.2270 hc        1 MOL      0.052155
     96 H41         3.5050   -3.4230    2.5080 hc        1 MOL      0.040425
     97 H42         3.4560   -1.7560    2.8530 hc        1 MOL      0.040425
     98 H43         3.6660   -2.9180    4.1590 hc        1 MOL      0.040425
     99 H44         1.5040   -1.2100    6.6050 hc        1 MOL     -0.009445
    100 H45         1.8330   -2.8650    6.2710 hc        1 MOL     -0.009445
    101 H46         3.0380   -1.6960    5.8030 hc        1 MOL     -0.009445
    102 N10         1.7850   -1.7820    0.2350 n         1 MOL     -0.155195
    103 C32         2.6670   -1.9090   -0.9970 c3        1 MOL      0.051058
    104 C33         4.0640   -1.3700   -0.7150 c         1 MOL      0.529405
    105 O16         4.3320   -0.8180    0.3390 o         1 MOL     -0.421733
    106 C34         1.8920   -1.1410   -2.1460 c3        1 MOL     -0.146616
    107 C35         0.4890   -1.5400   -2.4550 c         1 MOL      0.702835
    108 O17        -0.4090   -1.2050   -1.6530 o         1 MOL     -0.671276
    109 O18         0.1630   -2.1150   -3.4860 o         1 MOL     -0.671276
    110 H47         1.4680   -0.8890    0.5770 hn        1 MOL      0.103441
    111 H48         2.7180   -2.9570   -1.2640 h1        1 MOL      0.067539
    112 H49         2.5620   -1.1860   -3.0030 hc        1 MOL      0.028920
    113 H50         1.7770   -0.1390   -1.7290 hc        1 MOL      0.028920
    114 N11         5.0190   -1.7040   -1.6400 n         1 MOL     -0.724041
    115 C36         6.4290   -1.3760   -1.4410 c3        1 MOL      0.457859
    116 C37         6.6840    0.1220   -1.2430 c         1 MOL      0.218255
    117 O19         7.5190    0.3450   -0.3960 o         1 MOL     -0.463237
    118 C38         7.3520   -2.1020   -2.4890 c3        1 MOL     -0.331429
    119 C39         8.8560   -2.0810   -2.1170 ca        1 MOL      0.255994
    120 C40         9.3410   -2.9870   -1.2250 ca        1 MOL     -0.292306
    121 C41         9.6320   -1.1140   -2.7410 ca        1 MOL     -0.292306
    122 C42        10.6990   -2.9110   -0.8770 ca        1 MOL      0.028200
    123 C43        10.9790   -0.9980   -2.4310 ca        1 MOL      0.028200
    124 C44        11.5530   -1.9700   -1.5320 ca        1 MOL     -0.278446
    125 H51         4.7920   -2.2130   -2.4830 hn        1 MOL      0.350238
    126 H52         6.6450   -1.7730   -0.4510 h1        1 MOL      0.037137
    127 H53         7.2500   -1.6830   -3.4900 hc        1 MOL      0.086750
    128 H54         6.9720   -3.1220   -2.5930 hc        1 MOL      0.086750
    129 H55         8.6440   -3.6500   -0.7450 ha        1 MOL      0.146238
    130 H56         9.2290   -0.4020   -3.4420 ha        1 MOL      0.146238
    131 H57        11.1350   -3.5620   -0.1310 ha        1 MOL      0.084583
    132 H58        11.6070   -0.2470   -2.8900 ha        1 MOL      0.084583
    133 H59        12.6000   -1.8630   -1.2960 ha        1 MOL      0.137122
    134 N12         5.9340    1.0530   -1.8680 n         1 MOL     -0.046118
    135 C45         6.0200    2.5050   -1.5080 c3        1 MOL      0.069979
    136 C46         5.4780    2.7260   -0.1120 c         1 MOL      0.233285
    137 O20         5.9490    3.6440    0.5210 o         1 MOL     -0.514141
    138 C47         5.2650    3.3230   -2.6000 c3        1 MOL     -0.023790
    139 C48         5.2530    2.3430   -3.7780 c3        1 MOL     -0.089605
    140 C49         5.1680    0.9650   -3.1190 c3        1 MOL      0.016245
    141 H60         7.0650    2.8300   -1.5580 h1        1 MOL      0.059082
    142 H61         4.2200    3.4360   -2.3360 hc        1 MOL      0.045276
    143 H62         5.7560    4.2640   -2.8680 hc        1 MOL      0.045276
    144 H63         4.3590    2.4370   -4.4060 hc        1 MOL      0.039217
    145 H64         6.1700    2.4250   -4.3650 hc        1 MOL      0.039217
    146 H65         4.1330    0.7050   -2.8870 h1        1 MOL      0.026136
    147 H66         5.6330    0.2590   -3.8040 h1        1 MOL      0.026136
    148 N13         4.5120    2.0060    0.3590 n         1 MOL     -0.019903
    149 C50         3.9180    2.1460    1.6740 c3        1 MOL     -0.240005
    150 C51         4.6950    1.5290    2.8140 c         1 MOL      0.442067
    151 O21         4.4810    1.8680    3.9920 o         1 MOL     -0.534741
    152 C52         2.4600    1.5820    1.5960 c3        1 MOL     -0.019007
    153 C53         1.5680    2.1560    0.5400 c3        1 MOL     -0.143165
    154 C54         0.2020    1.5300    0.5050 c         1 MOL      0.588155
    155 O22        -0.6380    1.8120   -0.4040 o         1 MOL     -0.681621
    156 O23        -0.0690    0.6040    1.2910 o         1 MOL     -0.681621
    157 H67         4.2740    1.1740   -0.1690 hn        1 MOL      0.132013
    158 H68         3.8480    3.2110    1.8580 h1        1 MOL      0.174779
    159 H69         2.0150    1.8940    2.5420 hc        1 MOL      0.088267
    160 H70         2.3830    0.5030    1.6950 hc        1 MOL      0.088267
    161 H71         1.9940    1.9050   -0.4400 hc        1 MOL      0.072908
    162 H72         1.4350    3.2260    0.6540 hc        1 MOL      0.072908
    163 N14         5.7000    0.6390    2.4750 n         1 MOL     -0.068155
    164 C55         6.6970    0.0720    3.4430 c3        1 MOL     -0.170228
    165 H73         6.8370    0.7680    4.2700 h1        1 MOL      0.075099
    166 H74         6.3290   -0.8790    3.8280 h1        1 MOL      0.075099
    167 H75         7.6490   -0.0840    2.9350 h1        1 MOL      0.075099
    168 H76         5.7080    0.4140    1.4930 hn        1 MOL      0.103395
    169 Ca1        -2.2490   -0.0520   -0.4160 Ca        1 MOL      1.708135
    170 O24        -4.3070   -0.8030    1.3520 oh        1 MOL     -0.862310
    171 H77        -5.1740   -0.6010    1.7080 ho        1 MOL      0.411165
    172 H78        -3.6980   -0.5410    2.0460 ho        1 MOL      0.411165
    173 O25        -2.0400    0.0670    2.7210 oh        1 MOL     -0.862310
    174 H79        -1.1590    0.1080    2.3660 ho        1 MOL      0.411165
    175 H80        -1.9240    0.0770    3.6680 ho        1 MOL      0.411165
@<TRIPOS>BOND
     1    1    2 1   
     2    1    4 1   
     3    1    5 1   
     4    1    6 1   
     5    2    3 2   
     6    2    7 1   
     7    7    8 1   
     8    7   15 1   
     9    8    9 1   
    10    8   11 1   
    11    8   16 1   
    12    9   10 2   
    13    9   19 1   
    14   11   12 1   
    15   11   17 1   
    16   11   18 1   
    17   12   13 1   
    18   12   14 1   
    19   19   20 1   
    20   19   24 1   
    21   20   21 1   
    22   20   23 1   
    23   20   25 1   
    24   21   22 2   
    25   21   29 1   
    26   23   26 1   
    27   23   27 1   
    28   23   28 1   
    29   29   30 1   
    30   29   37 1   
    31   30   31 1   
    32   30   33 1   
    33   30   38 1   
    34   31   32 2   
    35   31   41 1   
    36   33   34 1   
    37   33   39 1   
    38   33   40 1   
    39   34   35 1   
    40   34   36 1   
    41   41   42 1   
    42   41   45 1   
    43   42   43 1   
    44   42   46 1   
    45   42   47 1   
    46   43   44 2   
    47   43   48 1   
    48   48   49 1   
    49   48   56 1   
    50   49   50 1   
    51   49   52 1   
    52   49   57 1   
    53   50   51 2   
    54   50   62 1   
    55   52   53 1   
    56   52   58 1   
    57   52   59 1   
    58   53   54 1   
    59   53   55 2   
    60   54   60 1   
    61   54   61 1   
    62   62   63 1   
    63   62   66 1   
    64   63   64 1   
    65   63   67 1   
    66   63   68 1   
    67   64   65 2   
    68   64   69 1   
    69   69   70 1   
    70   69   76 1   
    71   70   71 1   
    72   70   73 1   
    73   70   77 1   
    74   71   72 2   
    75   71   83 1   
    76   73   74 1   
    77   73   75 1   
    78   73   78 1   
    79   74   80 1   
    80   74   81 1   
    81   74   82 1   
    82   75   79 1   
    83   83   84 1   
    84   83   91 1   
    85   84   85 1   
    86   84   87 1   
    87   84   92 1   
    88   85   86 2   
    89   85  102 1   
    90   87   88 1   
    91   87   89 1   
    92   87   93 1   
    93   88   90 1   
    94   88   94 1   
    95   88   95 1   
    96   89   96 1   
    97   89   97 1   
    98   89   98 1   
    99   90   99 1   
   100   90  100 1   
   101   90  101 1   
   102  102  103 1   
   103  102  110 1   
   104  103  104 1   
   105  103  106 1   
   106  103  111 1   
   107  104  105 2   
   108  104  114 1   
   109  106  107 1   
   110  106  112 1   
   111  106  113 1   
   112  107  108 1   
   113  107  109 1   
   114  114  115 1   
   115  114  125 1   
   116  115  116 1   
   117  115  118 1   
   118  115  126 1   
   119  116  117 2   
   120  116  134 1   
   121  118  119 1   
   122  118  127 1   
   123  118  128 1   
   124  119  120 ar  
   125  119  121 ar  
   126  120  122 ar  
   127  120  129 1   
   128  121  123 ar  
   129  121  130 1   
   130  122  124 ar  
   131  122  131 1   
   132  123  124 ar  
   133  123  132 1   
   134  124  133 1   
   135  134  135 1   
   136  134  140 1   
   137  135  136 1   
   138  135  138 1   
   139  135  141 1   
   140  136  137 2   
   141  136  148 1   
   142  138  139 1   
   143  138  142 1   
   144  138  143 1   
   145  139  140 1   
   146  139  144 1   
   147  139  145 1   
   148  140  146 1   
   149  140  147 1   
   150  148  149 1   
   151  148  157 1   
   152  149  150 1   
   153  149  152 1   
   154  149  158 1   
   155  150  151 2   
   156  150  163 1   
   157  152  153 1   
   158  152  159 1   
   159  152  160 1   
   160  153  154 1   
   161  153  161 1   
   162  153  162 1   
   163  154  155 1   
   164  154  156 1   
   165  163  164 1   
   166  163  168 1   
   167  164  165 1   
   168  164  166 1   
   169  164  167 1   
   170  170  171 1   
   171  170  172 1   
   172  173  174 1   
   173  173  175 1   
@<TRIPOS>SUBSTRUCTURE
     1 MOL         1 TEMP              0 ****  ****    0 ROOT
