@<TRIPOS>MOLECULE
MOL
  189   185     1     0     0
SMALL
resp


@<TRIPOS>ATOM
      1 C1         -1.5960    3.0610    6.1780 c3        1 MOL     -0.385731
      2 C2         -1.6950    2.8470    4.6560 c         1 MOL      0.756259
      3 O1         -1.0930    1.9210    4.1070 o         1 MOL     -0.626226
      4 H1         -0.5480    3.0430    6.4790 hc        1 MOL      0.100511
      5 H2         -2.0320    4.0250    6.4390 hc        1 MOL      0.100511
      6 H3         -2.1350    2.2670    6.6930 hc        1 MOL      0.100511
      7 N1         -2.4810    3.6260    3.9050 n         1 MOL     -0.695061
      8 C3         -2.8450    3.3580    2.5210 c3        1 MOL      0.407876
      9 C4         -2.7590    4.6240    1.6080 c         1 MOL      0.384312
     10 O2         -3.1130    5.7240    2.0760 o         1 MOL     -0.563982
     11 C5         -4.2580    2.8570    2.6760 c3        1 MOL     -0.300664
     12 C6         -4.8760    2.5360    1.2860 c         1 MOL      0.736080
     13 O3         -4.1060    2.0130    0.4370 o         1 MOL     -0.672438
     14 O4         -6.1220    2.7240    1.1910 o         1 MOL     -0.672438
     15 H4         -3.0770    4.1860    4.5040 hn        1 MOL      0.330542
     16 H5         -2.2290    2.5900    2.0550 h1        1 MOL      0.068578
     17 H6         -4.8160    3.6590    3.1440 hc        1 MOL      0.032623
     18 H7         -4.3270    1.9740    3.3150 hc        1 MOL      0.032623
     19 N2         -2.2600    4.4800    0.3770 n         1 MOL     -0.114690
     20 C7         -2.3340    5.5120   -0.6420 c3        1 MOL     -0.169105
     21 C8         -3.0540    5.1320   -1.9750 c         1 MOL      0.518063
     22 O5         -3.2570    6.0270   -2.7890 o         1 MOL     -0.583633
     23 C9         -0.9410    6.1250   -0.9090 c3        1 MOL      0.342056
     24 C10         0.0060    5.1070   -1.5760 c3        1 MOL      0.069880
     25 C11        -0.2940    6.6620    0.3250 c3        1 MOL     -0.343072
     26 C12         1.3840    5.7940   -1.8940 c3        1 MOL     -0.285617
     27 H8         -1.8460    3.5880    0.1520 hn        1 MOL     -0.039361
     28 H9         -2.8320    6.3930   -0.2350 h1        1 MOL      0.102473
     29 H10        -1.1520    6.9720   -1.5620 hc        1 MOL     -0.064890
     30 H11        -0.4210    4.7980   -2.5290 hc        1 MOL      0.005145
     31 H12         0.1270    4.1890   -1.0010 hc        1 MOL      0.005145
     32 H13         0.6060    7.2420    0.1560 hc        1 MOL      0.067708
     33 H14        -1.0060    7.3190    0.8210 hc        1 MOL      0.067708
     34 H15         0.0920    5.9290    1.0280 hc        1 MOL      0.067708
     35 H16         1.8850    6.1130   -0.9790 hc        1 MOL      0.058946
     36 H17         2.0130    5.0850   -2.4270 hc        1 MOL      0.058946
     37 H18         1.1770    6.7000   -2.4700 hc        1 MOL      0.058946
     38 N3         -3.6030    3.9150   -2.1220 n         1 MOL     -0.340177
     39 C13        -4.2950    3.3840   -3.3650 c3        1 MOL      0.030122
     40 C14        -5.5810    2.5380   -3.1250 c         1 MOL      0.354174
     41 O6         -6.2640    2.1510   -4.0830 o         1 MOL     -0.521850
     42 C15        -3.4240    2.4830   -4.2670 c3        1 MOL     -0.167705
     43 C16        -2.6140    1.3820   -3.5350 c         1 MOL      0.747606
     44 O7         -2.8470    1.1390   -2.3110 o         1 MOL     -0.724391
     45 O8         -1.8200    0.6500   -4.2000 o         1 MOL     -0.724391
     46 H19        -3.2570    3.2430   -1.4480 hn        1 MOL      0.291845
     47 H20        -4.5450    4.2430   -3.9920 h1        1 MOL      0.099190
     48 H21        -2.7140    3.1910   -4.7110 hc        1 MOL      0.040293
     49 H22        -3.9790    1.9830   -5.0580 hc        1 MOL      0.040293
     50 N4         -6.0260    2.3430   -1.8530 n         1 MOL     -0.170183
     51 C17        -7.3610    1.8240   -1.5580 c3        1 MOL      0.051549
     52 C18        -7.6410    0.3120   -1.7800 c         1 MOL      0.356231
     53 O9         -8.8080   -0.0550   -2.0150 o         1 MOL     -0.574415
     54 H23        -5.4750    2.7640   -1.1160 hn        1 MOL      0.114483
     55 H24        -8.1390    2.4050   -2.0390 h1        1 MOL      0.041337
     56 H25        -7.5200    1.9840   -0.4860 h1        1 MOL      0.041337
     57 N5         -6.5990   -0.5480   -1.7660 n         1 MOL     -0.094817
     58 C19        -6.6170   -1.9970   -2.0590 c3        1 MOL      0.006422
     59 C20        -6.6200   -3.0130   -0.8830 c         1 MOL      0.401844
     60 O10        -6.5590   -4.1990   -1.1790 o         1 MOL     -0.489327
     61 C21        -5.5030   -2.3900   -3.0230 c3        1 MOL     -0.331189
     62 C22        -4.0850   -2.3270   -2.4700 c         1 MOL      0.779240
     63 O11        -3.9540   -1.9500   -1.3160 o         1 MOL     -0.696910
     64 O12        -3.0720   -2.6730   -3.1460 o         1 MOL     -0.696910
     65 H26        -5.7440   -0.0960   -1.4450 hn        1 MOL      0.116308
     66 H27        -7.5980   -2.2530   -2.4850 h1        1 MOL      0.104103
     67 H28        -5.6240   -1.6940   -3.8590 hc        1 MOL      0.100177
     68 H29        -5.6640   -3.3770   -3.4400 hc        1 MOL      0.100177
     69 N6         -6.7210   -2.5650    0.3470 n         1 MOL     -0.330062
     70 C23        -6.7890   -3.4970    1.4710 c3        1 MOL      0.092558
     71 C24        -5.5400   -4.3340    1.8720 c         1 MOL      0.527641
     72 O13        -5.7240   -5.3970    2.4770 o         1 MOL     -0.538225
     73 H30        -6.6280   -1.5780    0.5030 hn        1 MOL      0.217386
     74 H31        -7.6600   -4.1430    1.4940 h1        1 MOL      0.016462
     75 H32        -6.9670   -2.9060    2.3750 h1        1 MOL      0.016462
     76 N7         -4.3300   -3.8180    1.5050 n         1 MOL     -0.597781
     77 C25        -3.0840   -4.4890    1.7190 c3        1 MOL      0.101650
     78 C26        -1.9180   -3.5190    1.6280 c         1 MOL      0.583032
     79 O14        -1.9270   -2.6170    0.8120 o         1 MOL     -0.404522
     80 C27        -2.8310   -5.5400    0.6410 c3        1 MOL     -0.163101
     81 C28        -2.9810   -5.0020   -0.8360 c3        1 MOL     -0.010198
     82 C29        -2.5550   -5.8970   -1.9040 c         1 MOL      0.610039
     83 N8         -2.6090   -5.4460   -3.1680 n         1 MOL     -0.781154
     84 O15        -2.2300   -7.0820   -1.7410 o         1 MOL     -0.624397
     85 H33        -4.2830   -2.9740    0.9420 hn        1 MOL      0.421553
     86 H34        -2.9870   -4.9860    2.6840 h1        1 MOL      0.030787
     87 H35        -3.4930   -6.3840    0.8410 hc        1 MOL      0.057873
     88 H36        -1.8250   -5.9400    0.7580 hc        1 MOL      0.057873
     89 H37        -2.3590   -4.1100   -0.9820 hc        1 MOL      0.054643
     90 H38        -4.0510   -4.8360   -0.9480 hc        1 MOL      0.054643
     91 H39        -2.9390   -4.5130   -3.3660 hn        1 MOL      0.340482
     92 H40        -2.0300   -5.8820   -3.8730 hn        1 MOL      0.340482
     93 N9         -0.9010   -3.6060    2.5090 n         1 MOL     -0.613713
     94 C30         0.2190   -2.6260    2.6780 c3        1 MOL      0.081643
     95 C31         1.4480   -3.1500    1.9220 c         1 MOL      0.712933
     96 O16         1.9410   -4.2940    2.0890 o         1 MOL     -0.612087
     97 C32         0.4070   -2.4280    4.1580 c3        1 MOL      0.283921
     98 C33         1.1490   -3.4780    4.9310 c3        1 MOL     -0.204911
     99 C34         1.0590   -1.1060    4.3560 c3        1 MOL     -0.204911
    100 H41        -0.8800   -4.3860    3.1590 hn        1 MOL      0.305767
    101 H42        -0.1480   -1.7190    2.1740 h1        1 MOL     -0.108292
    102 H43        -0.5790   -2.3450    4.6330 hc        1 MOL     -0.054478
    103 H44         0.5370   -4.3870    4.9560 hc        1 MOL      0.034015
    104 H45         2.0660   -3.8320    4.4570 hc        1 MOL      0.034015
    105 H46         1.2560   -3.1220    5.9530 hc        1 MOL      0.034015
    106 H47         0.5410   -0.3180    3.8030 hc        1 MOL      0.034015
    107 H48         0.9750   -0.8170    5.4040 hc        1 MOL      0.034015
    108 H49         2.1150   -1.2360    4.1210 hc        1 MOL      0.034015
    109 N10         1.8300   -2.3390    0.9810 n         1 MOL     -0.563675
    110 C35         2.9270   -2.5230    0.0690 c3        1 MOL      0.437357
    111 C36         4.2640   -2.1440    0.7320 c         1 MOL      0.176363
    112 O17         4.2820   -1.3440    1.7100 o         1 MOL     -0.464065
    113 C37         2.6120   -1.8960   -1.3180 c3        1 MOL     -0.328758
    114 C38         3.7540   -1.0540   -1.8090 c         1 MOL      0.607267
    115 N11         4.4930   -1.4980   -2.7790 n         1 MOL     -0.678093
    116 O18         3.8720    0.1340   -1.4800 o         1 MOL     -0.460512
    117 H50         1.2120   -1.5510    0.9050 hn        1 MOL      0.276020
    118 H51         3.1950   -3.5660   -0.0860 h1        1 MOL     -0.024789
    119 H52         1.7810   -1.2220   -1.1120 hc        1 MOL      0.106327
    120 H53         2.3900   -2.7010   -2.0160 hc        1 MOL      0.106327
    121 H54         4.4440   -2.4310   -3.1600 hn        1 MOL      0.338079
    122 H55         5.1520   -0.8020   -3.0870 hn        1 MOL      0.338079
    123 N12         5.4180   -2.5050    0.2800 n         1 MOL     -0.093611
    124 C39         6.7390   -2.2330    0.9770 c3        1 MOL      0.043345
    125 C40         7.0720   -0.6960    1.0320 c         1 MOL      0.515065
    126 O19         7.9950   -0.3080    1.7880 o         1 MOL     -0.580086
    127 C41         7.7330   -3.0790    0.2260 c3        1 MOL     -0.301032
    128 C42         7.9280   -2.7940   -1.2110 ca        1 MOL      0.182264
    129 C43         8.6510   -1.7040   -1.6450 ca        1 MOL     -0.203354
    130 C44         7.3530   -3.6540   -2.1740 ca        1 MOL     -0.203354
    131 C45         8.8340   -1.4540   -3.0160 ca        1 MOL     -0.274708
    132 C46         7.3880   -3.3490   -3.5240 ca        1 MOL     -0.274708
    133 C47         8.2280   -2.2640   -3.9350 ca        1 MOL      0.418856
    134 O20         8.4070   -1.9660   -5.2870 oh        1 MOL     -0.612805
    135 H56         5.3540   -3.1120   -0.5240 hn        1 MOL      0.127312
    136 H57         6.7200   -2.4410    2.0430 h1        1 MOL      0.096945
    137 H58         7.4990   -4.1220    0.4290 hc        1 MOL      0.087447
    138 H59         8.7200   -2.8570    0.6380 hc        1 MOL      0.087447
    139 H60         9.0610   -1.0530   -0.8920 ha        1 MOL      0.137303
    140 H61         6.6820   -4.4600   -1.9140 ha        1 MOL      0.137303
    141 H62         9.3670   -0.5540   -3.2750 ha        1 MOL      0.151803
    142 H63         6.8480   -3.9850   -4.2150 ha        1 MOL      0.151803
    143 H64         8.7870   -1.0950   -5.4290 ho        1 MOL      0.446454
    144 N13         6.4080    0.1960    0.2370 n         1 MOL     -0.198318
    145 C48         6.5760    1.6540    0.3850 c3        1 MOL     -0.052266
    146 C49         5.5180    2.3670    1.2170 c         1 MOL      0.248219
    147 O21         5.7990    3.4280    1.7100 o         1 MOL     -0.493564
    148 C50         6.7010    2.3040   -1.0520 c3        1 MOL      0.028982
    149 C51         7.9960    2.0570   -1.8000 c3        1 MOL     -0.221533
    150 C52         8.3030    2.8720   -3.0440 c         1 MOL      0.716495
    151 O22         7.5380    2.7570   -4.0000 o         1 MOL     -0.743038
    152 O23         9.4180    3.4450   -3.1620 o         1 MOL     -0.743038
    153 H65         5.7500   -0.1980   -0.4240 hn        1 MOL      0.094316
    154 H66         7.5290    1.8590    0.8680 h1        1 MOL      0.130575
    155 H67         6.6190    3.3870   -0.9350 hc        1 MOL      0.031090
    156 H68         5.8910    1.9810   -1.6910 hc        1 MOL      0.031090
    157 H69         7.9760    0.9970   -2.0560 hc        1 MOL      0.032758
    158 H70         8.7180    2.3090   -1.0170 hc        1 MOL      0.032758
    159 N14         4.3730    1.7240    1.4150 n         1 MOL     -0.081213
    160 C53         3.3540    2.0590    2.4270 c3        1 MOL     -0.063042
    161 C54         3.7310    1.5760    3.7630 c         1 MOL      0.425278
    162 O24         3.3730    2.2050    4.7210 o         1 MOL     -0.564865
    163 C55         1.9400    1.5080    1.9840 c3        1 MOL     -0.174288
    164 C56         1.3710    2.2040    0.7400 c3        1 MOL     -0.028022
    165 C57         0.1090    1.4060    0.3820 c         1 MOL      0.629077
    166 O25        -0.9870    1.9320   -0.0180 o         1 MOL     -0.642355
    167 O26         0.0440    0.1610    0.5150 o         1 MOL     -0.642355
    168 H71         4.1590    0.9050    0.8630 hn        1 MOL      0.157891
    169 H72         3.2870    3.1350    2.5170 h1        1 MOL      0.105576
    170 H73         1.2600    1.4030    2.8270 hc        1 MOL      0.112673
    171 H74         2.1140    0.4730    1.7020 hc        1 MOL      0.112673
    172 H75         2.1040    2.1380   -0.0660 hc        1 MOL      0.045048
    173 H76         1.1320    3.2610    0.8850 hc        1 MOL      0.045048
    174 N15         4.6230    0.5900    3.9660 n         1 MOL     -0.034696
    175 C58         5.1310    0.1700    5.2420 c3        1 MOL     -0.181387
    176 H77         6.2120    0.3110    5.2660 h1        1 MOL      0.064360
    177 H78         4.6720    0.7640    6.0310 h1        1 MOL      0.064360
    178 H79         4.8990   -0.8840    5.3970 h1        1 MOL      0.064360
    179 H80         4.9010    0.1090    3.1210 hn        1 MOL      0.120972
    180 Ca1        -2.5480   -0.2120   -0.0130 Ca        1 MOL      1.780799
    181 O27        -1.9080   -0.0950    2.6520 oh        1 MOL     -0.966093
    182 H81        -1.3580    0.6260    2.9630 ho        1 MOL      0.446242
    183 H82        -2.1630   -0.5660    3.4510 ho        1 MOL      0.446242
    184 O28        -4.5740   -0.6550    1.6150 oh        1 MOL     -0.966093
    185 H83        -5.4300   -0.2220    1.5610 ho        1 MOL      0.446242
    186 H84        -4.4340   -0.7920    2.5520 ho        1 MOL      0.446242
    187 O29        -1.0350   -1.3230   -2.0390 oh        1 MOL     -0.966093
    188 H85        -1.6290   -1.9260   -2.4990 ho        1 MOL      0.446242
    189 H86        -0.5850   -0.8550   -2.7360 ho        1 MOL      0.446242
@<TRIPOS>BOND
     1    1    2 1   
     2    1    4 1   
     3    1    5 1   
     4    1    6 1   
     5    2    3 2   
     6    2    7 1   
     7    7    8 1   
     8    7   15 1   
     9    8    9 1   
    10    8   11 1   
    11    8   16 1   
    12    9   10 2   
    13    9   19 1   
    14   11   12 1   
    15   11   17 1   
    16   11   18 1   
    17   12   13 1   
    18   12   14 1   
    19   19   20 1   
    20   19   27 1   
    21   20   21 1   
    22   20   23 1   
    23   20   28 1   
    24   21   22 2   
    25   21   38 1   
    26   23   24 1   
    27   23   25 1   
    28   23   29 1   
    29   24   26 1   
    30   24   30 1   
    31   24   31 1   
    32   25   32 1   
    33   25   33 1   
    34   25   34 1   
    35   26   35 1   
    36   26   36 1   
    37   26   37 1   
    38   38   39 1   
    39   38   46 1   
    40   39   40 1   
    41   39   42 1   
    42   39   47 1   
    43   40   41 2   
    44   40   50 1   
    45   42   43 1   
    46   42   48 1   
    47   42   49 1   
    48   43   44 1   
    49   43   45 1   
    50   50   51 1   
    51   50   54 1   
    52   51   52 1   
    53   51   55 1   
    54   51   56 1   
    55   52   53 2   
    56   52   57 1   
    57   57   58 1   
    58   57   65 1   
    59   58   59 1   
    60   58   61 1   
    61   58   66 1   
    62   59   60 2   
    63   59   69 1   
    64   61   62 1   
    65   61   67 1   
    66   61   68 1   
    67   62   63 1   
    68   62   64 1   
    69   69   70 1   
    70   69   73 1   
    71   70   71 1   
    72   70   74 1   
    73   70   75 1   
    74   71   72 2   
    75   71   76 1   
    76   76   77 1   
    77   76   85 1   
    78   77   78 1   
    79   77   80 1   
    80   77   86 1   
    81   78   79 2   
    82   78   93 1   
    83   80   81 1   
    84   80   87 1   
    85   80   88 1   
    86   81   82 1   
    87   81   89 1   
    88   81   90 1   
    89   82   83 1   
    90   82   84 2   
    91   83   91 1   
    92   83   92 1   
    93   93   94 1   
    94   93  100 1   
    95   94   95 1   
    96   94   97 1   
    97   94  101 1   
    98   95   96 2   
    99   95  109 1   
   100   97   98 1   
   101   97   99 1   
   102   97  102 1   
   103   98  103 1   
   104   98  104 1   
   105   98  105 1   
   106   99  106 1   
   107   99  107 1   
   108   99  108 1   
   109  109  110 1   
   110  109  117 1   
   111  110  111 1   
   112  110  113 1   
   113  110  118 1   
   114  111  112 2   
   115  111  123 1   
   116  113  114 1   
   117  113  119 1   
   118  113  120 1   
   119  114  115 1   
   120  114  116 2   
   121  115  121 1   
   122  115  122 1   
   123  123  124 1   
   124  123  135 1   
   125  124  125 1   
   126  124  127 1   
   127  124  136 1   
   128  125  126 2   
   129  125  144 1   
   130  127  128 1   
   131  127  137 1   
   132  127  138 1   
   133  128  129 ar  
   134  128  130 ar  
   135  129  131 ar  
   136  129  139 1   
   137  130  132 ar  
   138  130  140 1   
   139  131  133 ar  
   140  131  141 1   
   141  132  133 ar  
   142  132  142 1   
   143  133  134 1   
   144  134  143 1   
   145  144  145 1   
   146  144  153 1   
   147  145  146 1   
   148  145  148 1   
   149  145  154 1   
   150  146  147 2   
   151  146  159 1   
   152  148  149 1   
   153  148  155 1   
   154  148  156 1   
   155  149  150 1   
   156  149  157 1   
   157  149  158 1   
   158  150  151 1   
   159  150  152 1   
   160  159  160 1   
   161  159  168 1   
   162  160  161 1   
   163  160  163 1   
   164  160  169 1   
   165  161  162 2   
   166  161  174 1   
   167  163  164 1   
   168  163  170 1   
   169  163  171 1   
   170  164  165 1   
   171  164  172 1   
   172  164  173 1   
   173  165  166 1   
   174  165  167 1   
   175  174  175 1   
   176  174  179 1   
   177  175  176 1   
   178  175  177 1   
   179  175  178 1   
   180  181  182 1   
   181  181  183 1   
   182  184  185 1   
   183  184  186 1   
   184  187  188 1   
   185  187  189 1   
@<TRIPOS>SUBSTRUCTURE
     1 MOL         1 TEMP              0 ****  ****    0 ROOT
