@<TRIPOS>MOLECULE
MOL
  189   185     1     0     0
SMALL
resp


@<TRIPOS>ATOM
      1 C1          0.1370    3.5120   -4.6550 c3        1 MOL     -0.330718
      2 C2          0.7370    2.9580   -3.3210 c         1 MOL      0.536619
      3 O1         -0.0160    2.9610   -2.3190 o         1 MOL     -0.534522
      4 H1          0.9470    3.7550   -5.3430 hc        1 MOL      0.092293
      5 H2         -0.5080    2.7570   -5.1050 hc        1 MOL      0.092293
      6 H3         -0.4440    4.4110   -4.4470 hc        1 MOL      0.092293
      7 N1          1.9840    2.3880   -3.3000 n         1 MOL     -0.480777
      8 C3          2.7040    1.9310   -2.0810 c3        1 MOL      0.134812
      9 C4          3.6740    2.9850   -1.5560 c         1 MOL      0.371226
     10 O2          4.8260    3.0280   -1.9850 o         1 MOL     -0.505142
     11 C5          3.4590    0.6330   -2.4440 c3        1 MOL     -0.043102
     12 C6          4.0630   -0.0150   -1.1750 c         1 MOL      0.743827
     13 O3          3.7010    0.3490   -0.0130 o         1 MOL     -0.648880
     14 O4          4.8370   -0.9370   -1.3370 o         1 MOL     -0.648880
     15 H4          2.5660    2.6280   -4.0920 hn        1 MOL      0.300303
     16 H5          2.0000    1.5830   -1.3200 h1        1 MOL      0.038305
     17 H6          4.2530    0.8690   -3.1590 hc        1 MOL     -0.013088
     18 H7          2.7300   -0.0060   -2.9280 hc        1 MOL     -0.013088
     19 N2          3.2560    3.9300   -0.7170 n         1 MOL     -0.376749
     20 C7          4.1570    4.9420   -0.1080 c3        1 MOL      0.089538
     21 C8          4.9710    4.4030    1.0230 c         1 MOL      0.321602
     22 O5          6.0190    4.9450    1.3930 o         1 MOL     -0.561531
     23 C9          3.3680    6.1950    0.3470 c3        1 MOL     -0.075818
     24 C10         2.5560    6.9600   -0.7030 c3        1 MOL     -0.105155
     25 C11         3.2380    7.1830   -2.0660 c3        1 MOL     -0.254138
     26 C12         4.5890    7.7820   -1.9530 c3        1 MOL      0.290808
     27 N3          5.3340    7.8070   -3.2630 n4        1 MOL     -0.520154
     28 H8          2.2790    3.8980   -0.4690 hn        1 MOL      0.305894
     29 H9          4.8290    5.2830   -0.8820 h1        1 MOL      0.076092
     30 H10         4.1950    6.8200    0.6780 hc        1 MOL      0.033833
     31 H11         2.7930    5.8890    1.2220 hc        1 MOL      0.033833
     32 H12         2.1370    7.8940   -0.3370 hc        1 MOL      0.093034
     33 H13         1.6450    6.3870   -0.8600 hc        1 MOL      0.093034
     34 H14         2.5890    7.8440   -2.6450 hc        1 MOL      0.076087
     35 H15         3.3670    6.2090   -2.5280 hc        1 MOL      0.076087
     36 H16         5.2740    7.2320   -1.2940 hx        1 MOL      0.037419
     37 H17         4.5400    8.8000   -1.5570 hx        1 MOL      0.037419
     38 H18         5.3460    6.9160   -3.7360 hn        1 MOL      0.357609
     39 H19         4.9010    8.4810   -3.8910 hn        1 MOL      0.357609
     40 H20         6.3270    8.0220   -3.2210 hn        1 MOL      0.357609
     41 N4          4.5950    3.2910    1.5720 n         1 MOL      0.026927
     42 C13         5.2530    2.7050    2.7370 c3        1 MOL     -0.115727
     43 C14         6.2190    1.5520    2.4120 c         1 MOL      0.451200
     44 O6          6.9290    1.1940    3.3190 o         1 MOL     -0.504122
     45 C15         4.2660    2.0980    3.7150 c3        1 MOL     -0.154792
     46 C16         3.3130    1.0470    3.0680 c         1 MOL      0.680313
     47 O7          3.7010   -0.1290    3.1050 o         1 MOL     -0.713435
     48 O8          2.2800    1.4680    2.5990 o         1 MOL     -0.713435
     49 H21         3.7670    2.8640    1.1740 hn        1 MOL      0.071870
     50 H22         5.8420    3.4570    3.2770 h1        1 MOL      0.124637
     51 H23         3.7010    2.9030    4.1840 hc        1 MOL      0.039848
     52 H24         4.8630    1.6000    4.4790 hc        1 MOL      0.039848
     53 N5          6.2580    1.0000    1.1650 n         1 MOL     -0.191950
     54 C17         7.3090    0.1140    0.6810 c3        1 MOL     -0.274816
     55 C18         7.4740   -1.2960    1.3640 c         1 MOL      0.525429
     56 O9          8.5510   -1.9680    1.2660 o         1 MOL     -0.572769
     57 H25         5.4730    1.2490    0.5810 hn        1 MOL      0.164900
     58 H26         8.2920    0.5720    0.8070 h1        1 MOL      0.121604
     59 H27         7.1090   -0.0240   -0.3820 h1        1 MOL      0.121604
     60 N6          6.3440   -1.8510    1.8370 n         1 MOL     -0.346587
     61 C19         6.2240   -3.3220    2.1440 c3        1 MOL      0.068692
     62 C20         6.2340   -4.0930    0.8290 c         1 MOL      0.483371
     63 O10         6.5770   -5.2750    0.8550 o         1 MOL     -0.579134
     64 C21         4.9490   -3.5580    3.0470 c3        1 MOL     -0.297999
     65 C22         3.5980   -3.2630    2.4450 c         1 MOL      0.731683
     66 O11         3.5100   -3.0350    1.2080 o         1 MOL     -0.673228
     67 O12         2.6570   -3.0710    3.2820 o         1 MOL     -0.673228
     68 H28         5.5030   -1.3230    1.7240 hn        1 MOL      0.285864
     69 H29         7.0600   -3.6260    2.7610 h1        1 MOL      0.094404
     70 H30         5.1600   -3.0050    3.9520 hc        1 MOL      0.091618
     71 H31         4.9960   -4.6270    3.2430 hc        1 MOL      0.091618
     72 N7          5.9000   -3.5220   -0.3210 n         1 MOL     -0.125806
     73 C23         5.7830   -4.2490   -1.6010 c3        1 MOL     -0.252243
     74 C24         4.3530   -4.5260   -2.0350 c         1 MOL      0.581378
     75 O13         4.1560   -5.2080   -3.0090 o         1 MOL     -0.597473
     76 H32         5.4050   -2.6370   -0.2400 hn        1 MOL      0.134557
     77 H33         6.1840   -5.2470   -1.4820 h1        1 MOL      0.125812
     78 H34         6.2470   -3.6750   -2.4090 h1        1 MOL      0.125812
     79 N8          3.2780   -4.0120   -1.4030 n         1 MOL     -0.186394
     80 C25         1.8850   -4.4950   -1.5270 c3        1 MOL     -0.171192
     81 C26         0.9780   -3.3000   -1.5420 c         1 MOL      0.546460
     82 O14         1.4590   -2.2980   -0.9490 o         1 MOL     -0.652173
     83 C27         1.4950   -5.5470   -0.5300 c3        1 MOL      0.593021
     84 C28         2.3640   -6.7990   -0.6860 c3        1 MOL     -0.645772
     85 O15         1.6760   -5.0560    0.7790 oh        1 MOL     -0.674281
     86 H35         3.4970   -3.4210   -0.6160 hn        1 MOL      0.139809
     87 H36         1.8400   -5.0120   -2.4850 h1        1 MOL      0.068808
     88 H37         0.4380   -5.7460   -0.6740 h1        1 MOL     -0.059474
     89 H38         2.2290   -4.2700    0.8250 ho        1 MOL      0.398082
     90 H39         1.9100   -7.5970   -0.1140 hc        1 MOL      0.163528
     91 H40         2.4130   -7.0240   -1.7600 hc        1 MOL      0.163528
     92 H41         3.3460   -6.5710   -0.2510 hc        1 MOL      0.163528
     93 N9         -0.1900   -3.4590   -2.1550 n         1 MOL     -0.464342
     94 C29        -1.3550   -2.4810   -2.1920 c3        1 MOL     -0.033189
     95 C30        -2.6810   -3.1030   -1.5480 c         1 MOL      0.480797
     96 O16        -3.0810   -4.1810   -1.8910 o         1 MOL     -0.549588
     97 C31        -1.5140   -1.9940   -3.6570 c3        1 MOL      0.249917
     98 C32        -0.3170   -1.2090   -4.1000 c3        1 MOL      0.161433
     99 C33        -2.7240   -1.1150   -3.8390 c3        1 MOL     -0.540363
    100 C34        -0.2810   -1.1050   -5.5830 c3        1 MOL      0.059317
    101 H42        -0.2550   -4.2680   -2.7540 hn        1 MOL      0.279141
    102 H43        -1.1080   -1.5480   -1.6890 h1        1 MOL      0.069621
    103 H44        -1.7050   -2.8370   -4.3170 hc        1 MOL     -0.009886
    104 H45         0.5380   -1.8730   -3.9120 hc        1 MOL      0.000208
    105 H46        -0.2460   -0.2250   -3.6500 hc        1 MOL      0.000208
    106 H47        -3.6630   -1.5370   -3.5040 hc        1 MOL      0.104035
    107 H48        -2.6210   -0.0680   -3.5490 hc        1 MOL      0.104035
    108 H49        -2.9790   -1.1440   -4.8960 hc        1 MOL      0.104035
    109 H50        -0.0370   -2.0990   -5.9380 hc        1 MOL     -0.042061
    110 H51        -1.1790   -0.7360   -6.0850 hc        1 MOL     -0.042061
    111 H52         0.5460   -0.4340   -5.8520 hc        1 MOL     -0.042061
    112 N10        -3.3390   -2.3700   -0.6100 n         1 MOL     -0.109517
    113 C35        -4.6800   -2.6660   -0.0090 c3        1 MOL     -0.061922
    114 C36        -5.8770   -2.0080   -0.7460 c         1 MOL      0.411106
    115 O17        -5.6920   -1.1260   -1.5820 o         1 MOL     -0.434036
    116 C37        -4.7510   -2.1680    1.4270 c3        1 MOL      0.073121
    117 C38        -3.7280   -2.9160    2.2500 c3        1 MOL     -0.327348
    118 O18        -4.6460   -0.7950    1.4610 oh        1 MOL     -0.479443
    119 H53        -2.8260   -1.5770   -0.2660 hn        1 MOL      0.243762
    120 H54        -4.8350   -3.7370    0.0280 h1        1 MOL      0.073628
    121 H55        -5.7520   -2.5000    1.7350 h1        1 MOL      0.050096
    122 H56        -3.8750   -0.6150    1.9990 ho        1 MOL      0.415658
    123 H57        -2.7390   -2.7200    1.8470 hc        1 MOL      0.089392
    124 H58        -3.7480   -2.6520    3.3080 hc        1 MOL      0.089392
    125 H59        -3.9010   -3.9870    2.1740 hc        1 MOL      0.089392
    126 N11        -7.0870   -2.3890   -0.3810 n         1 MOL     -0.257628
    127 C39        -8.3730   -1.6810   -0.7310 c3        1 MOL     -0.200587
    128 C40        -8.2110   -0.1580   -0.4080 c         1 MOL      0.359540
    129 O19        -8.6640    0.6590   -1.1980 o         1 MOL     -0.490636
    130 C41        -9.6150   -2.3170   -0.0010 c3        1 MOL      0.358263
    131 C42       -10.1100   -3.6820   -0.4880 c3        1 MOL     -0.460089
    132 O20        -9.3240   -2.3070    1.3510 oh        1 MOL     -0.665756
    133 H60        -7.2280   -3.2170    0.1930 hn        1 MOL      0.260900
    134 H61        -8.5320   -1.7460   -1.7970 h1        1 MOL      0.159850
    135 H62       -10.4340   -1.6030   -0.0730 h1        1 MOL      0.044348
    136 H63       -10.0820   -2.6370    1.8310 ho        1 MOL      0.427071
    137 H64       -11.1760   -3.7100   -0.2600 hc        1 MOL      0.129942
    138 H65        -9.8940   -3.7020   -1.5610 hc        1 MOL      0.129942
    139 H66        -9.5530   -4.4620    0.0250 hc        1 MOL      0.129942
    140 N12        -7.5980    0.2910    0.6980 n         1 MOL     -0.165079
    141 C43        -7.2680    1.6620    1.2260 c3        1 MOL     -0.121251
    142 C44        -6.2590    2.3710    0.3380 c         1 MOL      0.325845
    143 O21        -6.5350    3.4900    0.0300 o         1 MOL     -0.537462
    144 C45        -6.9530    1.4610    2.7060 c3        1 MOL      0.023326
    145 C46        -7.0520    2.8450    3.4290 c3        1 MOL     -0.140192
    146 C47        -6.8820    2.6550    4.9440 c3        1 MOL     -0.015333
    147 C48        -6.7800    3.9750    5.6520 c3        1 MOL      0.107437
    148 N13        -6.2980    3.9130    7.0770 n4        1 MOL     -0.326643
    149 H67        -7.2880   -0.4970    1.2410 hn        1 MOL      0.176938
    150 H68        -8.2180    2.1760    1.0610 h1        1 MOL      0.135489
    151 H69        -5.9540    1.0330    2.7650 hc        1 MOL      0.012887
    152 H70        -7.6950    0.7950    3.1540 hc        1 MOL      0.012887
    153 H71        -8.0560    3.2160    3.2280 hc        1 MOL      0.076569
    154 H72        -6.2670    3.4500    2.9720 hc        1 MOL      0.076569
    155 H73        -5.9750    2.0780    5.1410 hc        1 MOL      0.033335
    156 H74        -7.7780    2.2140    5.3870 hc        1 MOL      0.033335
    157 H75        -7.7690    4.4440    5.6370 hx        1 MOL      0.062932
    158 H76        -6.1360    4.6170    5.0490 hx        1 MOL      0.062932
    159 H77        -5.3910    3.4660    7.0600 hn        1 MOL      0.304376
    160 H78        -6.2050    4.8490    7.4570 hn        1 MOL      0.304376
    161 H79        -6.7870    3.2890    7.6970 hn        1 MOL      0.304376
    162 N14        -5.2760    1.6920   -0.2400 n         1 MOL      0.365266
    163 C49        -4.1140    2.2310   -0.9680 c3        1 MOL     -0.455209
    164 C50        -4.4440    2.5690   -2.3950 c         1 MOL      0.546457
    165 O22        -3.8540    3.5580   -2.8350 o         1 MOL     -0.548391
    166 C51        -2.8620    1.3330   -0.8770 c3        1 MOL      0.215003
    167 C52        -2.2530    1.4790    0.5100 c3        1 MOL     -0.680119
    168 C53        -1.2500    0.3470    0.7500 c         1 MOL      0.887227
    169 O23        -1.7360   -0.8100    0.8790 o         1 MOL     -0.758146
    170 O24        -0.0180    0.5960    0.7360 o         1 MOL     -0.758146
    171 H80        -5.0990    0.7580    0.1200 hn        1 MOL     -0.093406
    172 H81        -3.7740    3.1660   -0.5190 h1        1 MOL      0.156403
    173 H82        -2.1330    1.5820   -1.6560 hc        1 MOL      0.088736
    174 H83        -3.1510    0.2920   -1.0290 hc        1 MOL      0.088736
    175 H84        -2.9730    1.5110    1.3370 hc        1 MOL      0.155050
    176 H85        -1.8000    2.4650    0.4500 hc        1 MOL      0.155050
    177 N15        -5.5630    2.0230   -2.9010 n         1 MOL     -0.189759
    178 C54        -6.2080    2.4620   -4.1360 c3        1 MOL     -0.389188
    179 H86        -5.4460    2.7400   -4.8640 h1        1 MOL      0.142259
    180 H87        -6.8150    1.6500   -4.5390 h1        1 MOL      0.142259
    181 H88        -6.8430    3.3230   -3.9290 h1        1 MOL      0.142259
    182 H89        -5.9830    1.2770   -2.3660 hn        1 MOL      0.219015
    183 Ca1         1.8500   -0.9480    1.4160 Ca        1 MOL      1.739263
    184 O25         0.2190   -0.9790    3.5600 oh        1 MOL     -0.797775
    185 H90         0.2330   -1.5910    4.2830 ho        1 MOL      0.392063
    186 H91        -0.3350   -0.2530    3.8620 ho        1 MOL      0.392063
    187 O26        -0.0310   -2.9150    1.5500 oh        1 MOL     -0.797775
    188 H92        -0.3020   -3.8340    1.6400 ho        1 MOL      0.392063
    189 H93        -0.8500   -2.4210    1.6050 ho        1 MOL      0.392063
@<TRIPOS>BOND
     1    1    2 1   
     2    1    4 1   
     3    1    5 1   
     4    1    6 1   
     5    2    3 2   
     6    2    7 1   
     7    7    8 1   
     8    7   15 1   
     9    8    9 1   
    10    8   11 1   
    11    8   16 1   
    12    9   10 2   
    13    9   19 1   
    14   11   12 1   
    15   11   17 1   
    16   11   18 1   
    17   12   13 1   
    18   12   14 1   
    19   19   20 1   
    20   19   28 1   
    21   20   21 1   
    22   20   23 1   
    23   20   29 1   
    24   21   22 2   
    25   21   41 1   
    26   23   24 1   
    27   23   30 1   
    28   23   31 1   
    29   24   25 1   
    30   24   32 1   
    31   24   33 1   
    32   25   26 1   
    33   25   34 1   
    34   25   35 1   
    35   26   27 1   
    36   26   36 1   
    37   26   37 1   
    38   27   38 1   
    39   27   39 1   
    40   27   40 1   
    41   41   42 1   
    42   41   49 1   
    43   42   43 1   
    44   42   45 1   
    45   42   50 1   
    46   43   44 2   
    47   43   53 1   
    48   45   46 1   
    49   45   51 1   
    50   45   52 1   
    51   46   47 1   
    52   46   48 1   
    53   53   54 1   
    54   53   57 1   
    55   54   55 1   
    56   54   58 1   
    57   54   59 1   
    58   55   56 2   
    59   55   60 1   
    60   60   61 1   
    61   60   68 1   
    62   61   62 1   
    63   61   64 1   
    64   61   69 1   
    65   62   63 2   
    66   62   72 1   
    67   64   65 1   
    68   64   70 1   
    69   64   71 1   
    70   65   66 1   
    71   65   67 1   
    72   72   73 1   
    73   72   76 1   
    74   73   74 1   
    75   73   77 1   
    76   73   78 1   
    77   74   75 2   
    78   74   79 1   
    79   79   80 1   
    80   79   86 1   
    81   80   81 1   
    82   80   83 1   
    83   80   87 1   
    84   81   82 2   
    85   81   93 1   
    86   83   84 1   
    87   83   85 1   
    88   83   88 1   
    89   84   90 1   
    90   84   91 1   
    91   84   92 1   
    92   85   89 1   
    93   93   94 1   
    94   93  101 1   
    95   94   95 1   
    96   94   97 1   
    97   94  102 1   
    98   95   96 2   
    99   95  112 1   
   100   97   98 1   
   101   97   99 1   
   102   97  103 1   
   103   98  100 1   
   104   98  104 1   
   105   98  105 1   
   106   99  106 1   
   107   99  107 1   
   108   99  108 1   
   109  100  109 1   
   110  100  110 1   
   111  100  111 1   
   112  112  113 1   
   113  112  119 1   
   114  113  114 1   
   115  113  116 1   
   116  113  120 1   
   117  114  115 2   
   118  114  126 1   
   119  116  117 1   
   120  116  118 1   
   121  116  121 1   
   122  117  123 1   
   123  117  124 1   
   124  117  125 1   
   125  118  122 1   
   126  126  127 1   
   127  126  133 1   
   128  127  128 1   
   129  127  130 1   
   130  127  134 1   
   131  128  129 2   
   132  128  140 1   
   133  130  131 1   
   134  130  132 1   
   135  130  135 1   
   136  131  137 1   
   137  131  138 1   
   138  131  139 1   
   139  132  136 1   
   140  140  141 1   
   141  140  149 1   
   142  141  142 1   
   143  141  144 1   
   144  141  150 1   
   145  142  143 2   
   146  142  162 1   
   147  144  145 1   
   148  144  151 1   
   149  144  152 1   
   150  145  146 1   
   151  145  153 1   
   152  145  154 1   
   153  146  147 1   
   154  146  155 1   
   155  146  156 1   
   156  147  148 1   
   157  147  157 1   
   158  147  158 1   
   159  148  159 1   
   160  148  160 1   
   161  148  161 1   
   162  162  163 1   
   163  162  171 1   
   164  163  164 1   
   165  163  166 1   
   166  163  172 1   
   167  164  165 2   
   168  164  177 1   
   169  166  167 1   
   170  166  173 1   
   171  166  174 1   
   172  167  168 1   
   173  167  175 1   
   174  167  176 1   
   175  168  169 1   
   176  168  170 1   
   177  177  178 1   
   178  177  182 1   
   179  178  179 1   
   180  178  180 1   
   181  178  181 1   
   182  184  185 1   
   183  184  186 1   
   184  187  188 1   
   185  187  189 1   
@<TRIPOS>SUBSTRUCTURE
     1 MOL         1 TEMP              0 ****  ****    0 ROOT
