@<TRIPOS>MOLECULE
MOL
  179   176     1     0     0
SMALL
resp


@<TRIPOS>ATOM
      1 C1          2.4130    3.2960    4.3870 c3        1 MOL     -0.385092
      2 C2          1.5790    2.9580    3.1700 c         1 MOL      0.633592
      3 O1          2.1180    2.9480    2.0530 o         1 MOL     -0.559045
      4 H1          2.5550    4.3750    4.4410 hc        1 MOL      0.102869
      5 H2          1.9010    2.9520    5.2850 hc        1 MOL      0.102869
      6 H3          3.3830    2.8060    4.3110 hc        1 MOL      0.102869
      7 N1          0.2160    2.8790    3.2760 n         1 MOL     -0.519307
      8 C3         -0.8070    2.7290    2.2120 c3        1 MOL     -0.015745
      9 C4         -1.2960    4.0170    1.6700 c         1 MOL      0.504650
     10 O2         -2.4550    4.4330    1.6940 o         1 MOL     -0.467498
     11 C5         -2.0100    1.9000    2.6550 c3        1 MOL     -0.070149
     12 C6         -2.9510    1.3870    1.6000 c         1 MOL      0.689552
     13 O3         -4.0420    0.9300    1.8970 o         1 MOL     -0.698808
     14 O4         -2.5450    1.2620    0.3920 o         1 MOL     -0.698808
     15 H4         -0.2650    2.8160    4.1610 hn        1 MOL      0.299714
     16 H5         -0.3000    2.1030    1.4830 h1        1 MOL      0.044542
     17 H6         -2.6510    2.5020    3.3040 hc        1 MOL      0.034190
     18 H7         -1.6250    1.0900    3.2750 hc        1 MOL      0.034190
     19 N2         -0.3890    4.7020    0.9900 n         1 MOL     -0.343448
     20 C7         -0.7120    6.0590    0.4410 c3        1 MOL     -0.001953
     21 C8         -1.9200    6.1640   -0.5090 c         1 MOL      0.401181
     22 O5         -2.6770    7.1090   -0.4890 o         1 MOL     -0.522772
     23 C9          0.5360    6.6730   -0.1660 c3        1 MOL     -0.185460
     24 C10         1.6090    6.9970    0.8380 c3        1 MOL     -0.003170
     25 C11         2.8190    7.6920    0.1480 c3        1 MOL     -0.025105
     26 C12         3.7270    8.2940    1.2070 c3        1 MOL     -0.089121
     27 N3          4.3480    7.2320    2.0900 n4        1 MOL     -0.353976
     28 H8          0.5850    4.4400    0.9250 hn        1 MOL      0.298764
     29 H9         -0.9970    6.6780    1.2930 h1        1 MOL      0.078368
     30 H10         0.2570    7.6250   -0.6120 hc        1 MOL      0.099032
     31 H11         0.9190    6.1540   -1.0420 hc        1 MOL      0.099032
     32 H12         1.9400    6.1790    1.4800 hc        1 MOL      0.017184
     33 H13         1.2390    7.6730    1.6160 hc        1 MOL      0.017184
     34 H14         2.5630    8.4520   -0.5850 hc        1 MOL      0.066351
     35 H15         3.3250    7.0290   -0.5540 hc        1 MOL      0.066351
     36 H16         3.2080    9.0850    1.7330 hx        1 MOL      0.118476
     37 H17         4.5300    8.7540    0.6130 hx        1 MOL      0.118476
     38 H18         4.9320    7.5760    2.8450 hn        1 MOL      0.337254
     39 H19         3.6020    6.7180    2.5300 hn        1 MOL      0.337254
     40 H20         4.8590    6.5830    1.5090 hn        1 MOL      0.337254
     41 N4         -2.1400    5.2490   -1.4450 n         1 MOL     -0.246906
     42 C13        -3.3270    5.0320   -2.3410 c3        1 MOL     -0.007534
     43 C14        -4.5920    4.4620   -1.7130 c         1 MOL      0.496948
     44 O6         -5.6330    4.8470   -2.2140 o         1 MOL     -0.529540
     45 C15        -2.9170    4.1570   -3.5040 c3        1 MOL     -0.211334
     46 C16        -2.3880    2.8420   -2.9760 c         1 MOL      0.745185
     47 O7         -1.1540    2.8360   -2.7000 o         1 MOL     -0.737979
     48 O8         -3.0200    1.7610   -2.9410 o         1 MOL     -0.737979
     49 H21        -1.5360    4.4380   -1.4900 hn        1 MOL      0.174690
     50 H22        -3.6710    6.0010   -2.7200 h1        1 MOL      0.106259
     51 H23        -2.1630    4.6610   -4.1220 hc        1 MOL      0.064870
     52 H24        -3.8070    4.0280   -4.1260 hc        1 MOL      0.064870
     53 N5         -4.5290    3.8220   -0.4640 n         1 MOL     -0.072620
     54 C17        -5.6980    3.4360    0.3650 c3        1 MOL     -0.342878
     55 C18        -6.4130    2.1320   -0.0490 c         1 MOL      0.653951
     56 O9         -7.6070    2.0240    0.1950 o         1 MOL     -0.596073
     57 H25        -3.6160    3.6530   -0.0710 hn        1 MOL      0.129116
     58 H26        -6.4930    4.1730    0.2170 h1        1 MOL      0.140876
     59 H27        -5.3450    3.3590    1.3900 h1        1 MOL      0.140876
     60 N6         -5.7190    1.1970   -0.6950 n         1 MOL     -0.258015
     61 C19        -6.4210   -0.0490   -1.1640 c3        1 MOL     -0.035938
     62 C20        -6.4590   -1.1370   -0.0400 c         1 MOL      0.261337
     63 O10        -6.9600   -2.2140   -0.2150 o         1 MOL     -0.431103
     64 C21        -5.9640   -0.4750   -2.5700 c3        1 MOL     -0.213225
     65 C22        -4.7410   -1.3740   -2.4700 c         1 MOL      0.576432
     66 N7         -4.7280   -2.4860   -3.1930 n         1 MOL     -0.718004
     67 O11        -3.7540   -1.0910   -1.7830 o         1 MOL     -0.522244
     68 H28        -4.7150    1.2520   -0.6570 hn        1 MOL      0.027988
     69 H29        -7.4790    0.1550   -1.2970 h1        1 MOL      0.145290
     70 H30        -5.7610    0.3500   -3.2570 hc        1 MOL      0.109620
     71 H31        -6.7630   -1.0550   -3.0270 hc        1 MOL      0.109620
     72 H32        -5.5190   -2.6250   -3.8010 hn        1 MOL      0.352126
     73 H33        -3.8530   -2.9950   -3.2590 hn        1 MOL      0.352126
     74 N8         -5.9640   -0.8650    1.1670 n         1 MOL     -0.061502
     75 C23        -5.9820   -1.7940    2.3070 c3        1 MOL     -0.519900
     76 C24        -4.7640   -2.8320    2.2660 c         1 MOL      0.761074
     77 O12        -4.6640   -3.7820    3.0640 o         1 MOL     -0.587939
     78 H34        -5.5060    0.0080    1.3800 hn        1 MOL      0.286857
     79 H35        -6.9340   -2.3220    2.2700 h1        1 MOL      0.195520
     80 H36        -5.8320   -1.2460    3.2370 h1        1 MOL      0.195520
     81 N9         -3.7260   -2.6100    1.4200 n         1 MOL     -0.555703
     82 C25        -2.6150   -3.5280    1.2130 c3        1 MOL      0.076846
     83 C26        -1.3010   -2.8090    0.9340 c         1 MOL      0.439836
     84 O13        -1.2370   -1.9330    0.0180 o         1 MOL     -0.607527
     85 C27        -2.8560   -4.6000    0.1710 c3        1 MOL      0.423484
     86 C28        -4.1380   -5.4360    0.2230 ca        1 MOL     -0.394238
     87 C29        -5.2340   -4.9220   -0.4660 ca        1 MOL      0.107241
     88 C30        -4.3170   -6.4400    1.1630 ca        1 MOL      0.107241
     89 C31        -6.4510   -5.5980   -0.3720 ca        1 MOL     -0.421479
     90 C32        -5.4850   -7.1710    1.1870 ca        1 MOL     -0.421479
     91 C33        -6.5270   -6.7430    0.3930 ca        1 MOL      0.511290
     92 O14        -7.6890   -7.3950    0.4850 oh        1 MOL     -0.517408
     93 H37        -3.8400   -1.9490    0.6650 hn        1 MOL      0.361076
     94 H38        -2.4510   -4.0700    2.1440 h1        1 MOL      0.045281
     95 H39        -1.9750   -5.2460    0.1820 hc        1 MOL     -0.089953
     96 H40        -2.7900   -4.1660   -0.8240 hc        1 MOL     -0.089953
     97 H41        -5.1760   -3.9320   -0.8900 ha        1 MOL      0.061719
     98 H42        -3.4550   -6.7190    1.7600 ha        1 MOL      0.061719
     99 H43        -7.3560   -5.2670   -0.8560 ha        1 MOL      0.168148
    100 H44        -5.6570   -7.9270    1.9370 ha        1 MOL      0.168148
    101 H45        -7.5750   -8.2290    0.9550 ho        1 MOL      0.357193
    102 N10        -0.2280   -3.3160    1.5690 n         1 MOL     -0.382769
    103 C34         1.1390   -2.8050    1.5120 c3        1 MOL     -0.016530
    104 C35         2.1200   -3.9130    1.0260 c         1 MOL      0.485050
    105 O15         2.0540   -5.0500    1.5080 o         1 MOL     -0.554829
    106 C36         1.6630   -2.3180    2.9030 c3        1 MOL      0.156578
    107 C37         0.8690   -1.1940    3.6050 c3        1 MOL      0.040791
    108 C38         3.1710   -1.9490    2.8670 c3        1 MOL     -0.266075
    109 C39         1.1090   -1.1750    5.1680 c3        1 MOL     -0.295266
    110 H46        -0.3630   -3.9910    2.3060 hn        1 MOL      0.268973
    111 H47         1.2080   -2.0070    0.7820 h1        1 MOL      0.110648
    112 H48         1.5890   -3.2470    3.4760 hc        1 MOL      0.006230
    113 H49        -0.1820   -1.4100    3.4480 hc        1 MOL      0.035030
    114 H50         1.0670   -0.2330    3.1290 hc        1 MOL      0.035030
    115 H51         3.2300   -1.1640    2.1120 hc        1 MOL      0.056689
    116 H52         3.4670   -1.4140    3.7780 hc        1 MOL      0.056689
    117 H53         3.8570   -2.7690    2.6640 hc        1 MOL      0.056689
    118 H54         0.9760   -2.1340    5.6570 hc        1 MOL      0.072466
    119 H55         2.1070   -0.7880    5.4180 hc        1 MOL      0.072466
    120 H56         0.3560   -0.5090    5.5850 hc        1 MOL      0.072466
    121 N11         2.9510   -3.6260    0.0520 n         1 MOL     -0.214677
    122 C40         4.0380   -4.4170   -0.4970 c3        1 MOL      0.111947
    123 C41         5.4080   -3.7750   -0.2130 c         1 MOL      0.226522
    124 O16         5.3540   -2.6930    0.3640 o         1 MOL     -0.295446
    125 C42         3.8510   -4.6350   -1.9420 c3        1 MOL     -0.058723
    126 O17         3.9010   -3.4070   -2.5730 oh        1 MOL     -0.561899
    127 H57         2.9380   -2.6850   -0.3170 hn        1 MOL      0.171913
    128 H58         3.9320   -5.4320   -0.1170 h1        1 MOL      0.035745
    129 H59         2.8490   -5.0200   -2.0960 h1        1 MOL      0.080671
    130 H60         4.6380   -5.2990   -2.3020 h1        1 MOL      0.080671
    131 H61         2.9850   -3.2030   -2.7710 ho        1 MOL      0.413239
    132 N12         6.4880   -4.4430   -0.6080 n         1 MOL     -0.267509
    133 C43         7.8640   -4.0490   -0.2610 c3        1 MOL      0.019618
    134 C44         8.3280   -2.6500   -0.7840 c         1 MOL      0.495685
    135 O18         9.0430   -2.0010   -0.0580 o         1 MOL     -0.501565
    136 C45         8.7470   -5.1450   -0.7990 c3        1 MOL     -0.322050
    137 H62         6.3490   -5.3460   -1.0290 hn        1 MOL      0.263925
    138 H63         7.9880   -4.1970    0.8090 h1        1 MOL      0.116039
    139 H64         8.6860   -6.0520   -0.2020 hc        1 MOL      0.098631
    140 H65         8.5790   -5.3460   -1.8540 hc        1 MOL      0.098631
    141 H66         9.7690   -4.8030   -0.6140 hc        1 MOL      0.098631
    142 N13         7.8100   -2.2210   -1.9500 n         1 MOL     -0.399067
    143 C46         8.0480   -0.8550   -2.4920 c3        1 MOL      0.067128
    144 C47         7.4090    0.2670   -1.7470 c         1 MOL      0.398499
    145 O19         8.0840    1.3030   -1.6240 o         1 MOL     -0.506250
    146 C48         7.5980   -0.9000   -3.9690 c3        1 MOL     -0.252413
    147 H67         7.4480   -2.9630   -2.5360 hn        1 MOL      0.297598
    148 H68         9.1300   -0.6920   -2.4300 h1        1 MOL      0.098100
    149 H69         7.7830   -1.8400   -4.4800 hc        1 MOL      0.075674
    150 H70         6.5270   -0.7820   -4.0730 hc        1 MOL      0.075674
    151 H71         8.0990   -0.0550   -4.4380 hc        1 MOL      0.075674
    152 N14         6.1910    0.0950   -1.2520 n         1 MOL     -0.146546
    153 C49         5.4780    1.0420   -0.4860 c3        1 MOL     -0.195148
    154 C50         6.0570    1.1190    0.9550 c         1 MOL      0.369996
    155 O20         6.1190    2.2520    1.5030 o         1 MOL     -0.553772
    156 C51         3.9590    0.8950   -0.4420 c3        1 MOL      0.161101
    157 C52         3.2230    0.7020   -1.7760 c3        1 MOL     -0.113628
    158 C53         1.7830    0.2470   -1.4890 c         1 MOL      0.631294
    159 O21         0.9760    1.1970   -1.1410 o         1 MOL     -0.727608
    160 O22         1.3050   -0.9180   -1.4880 o         1 MOL     -0.727608
    161 H72         5.7860   -0.8040   -1.4970 hn        1 MOL      0.205391
    162 H73         5.7330    2.0190   -0.8980 h1        1 MOL      0.123422
    163 H74         3.6690    1.8350    0.0440 hc        1 MOL      0.024069
    164 H75         3.7020    0.0570    0.1940 hc        1 MOL      0.024069
    165 H76         3.7190   -0.0040   -2.4410 hc        1 MOL      0.010477
    166 H77         3.2490    1.6460   -2.3110 hc        1 MOL      0.010477
    167 N15         6.6440   -0.0030    1.4210 n         1 MOL      0.018883
    168 C54         7.5170   -0.0620    2.6240 c3        1 MOL     -0.192600
    169 H78         8.5480   -0.2390    2.3160 h1        1 MOL      0.088632
    170 H79         7.4570    0.8830    3.1630 h1        1 MOL      0.088632
    171 H80         7.1880   -0.8730    3.2740 h1        1 MOL      0.088632
    172 H81         6.3830   -0.8610    0.9580 hn        1 MOL      0.012190
    173 Ca1        -1.3650    0.1070   -1.5710 Ca        1 MOL      1.704667
    174 O23        -0.2480    0.5110   -4.0280 oh        1 MOL     -0.782406
    175 H82        -0.2930    0.6050   -4.9780 ho        1 MOL      0.393796
    176 H83        -0.0790    1.4020   -3.7090 ho        1 MOL      0.393796
    177 O24        -1.3220   -2.0460   -3.2020 oh        1 MOL     -0.782406
    178 H84        -0.4570   -2.3320   -3.4940 ho        1 MOL      0.393796
    179 H85        -1.8130   -2.8600   -3.0630 ho        1 MOL      0.393796
@<TRIPOS>BOND
     1    1    2 1   
     2    1    4 1   
     3    1    5 1   
     4    1    6 1   
     5    2    3 2   
     6    2    7 1   
     7    7    8 1   
     8    7   15 1   
     9    8    9 1   
    10    8   11 1   
    11    8   16 1   
    12    9   10 2   
    13    9   19 1   
    14   11   12 1   
    15   11   17 1   
    16   11   18 1   
    17   12   13 1   
    18   12   14 1   
    19   19   20 1   
    20   19   28 1   
    21   20   21 1   
    22   20   23 1   
    23   20   29 1   
    24   21   22 2   
    25   21   41 1   
    26   23   24 1   
    27   23   30 1   
    28   23   31 1   
    29   24   25 1   
    30   24   32 1   
    31   24   33 1   
    32   25   26 1   
    33   25   34 1   
    34   25   35 1   
    35   26   27 1   
    36   26   36 1   
    37   26   37 1   
    38   27   38 1   
    39   27   39 1   
    40   27   40 1   
    41   41   42 1   
    42   41   49 1   
    43   42   43 1   
    44   42   45 1   
    45   42   50 1   
    46   43   44 2   
    47   43   53 1   
    48   45   46 1   
    49   45   51 1   
    50   45   52 1   
    51   46   47 1   
    52   46   48 1   
    53   53   54 1   
    54   53   57 1   
    55   54   55 1   
    56   54   58 1   
    57   54   59 1   
    58   55   56 2   
    59   55   60 1   
    60   60   61 1   
    61   60   68 1   
    62   61   62 1   
    63   61   64 1   
    64   61   69 1   
    65   62   63 2   
    66   62   74 1   
    67   64   65 1   
    68   64   70 1   
    69   64   71 1   
    70   65   66 1   
    71   65   67 2   
    72   66   72 1   
    73   66   73 1   
    74   74   75 1   
    75   74   78 1   
    76   75   76 1   
    77   75   79 1   
    78   75   80 1   
    79   76   77 2   
    80   76   81 1   
    81   81   82 1   
    82   81   93 1   
    83   82   83 1   
    84   82   85 1   
    85   82   94 1   
    86   83   84 2   
    87   83  102 1   
    88   85   86 1   
    89   85   95 1   
    90   85   96 1   
    91   86   87 ar  
    92   86   88 ar  
    93   87   89 ar  
    94   87   97 1   
    95   88   90 ar  
    96   88   98 1   
    97   89   91 ar  
    98   89   99 1   
    99   90   91 ar  
   100   90  100 1   
   101   91   92 1   
   102   92  101 1   
   103  102  103 1   
   104  102  110 1   
   105  103  104 1   
   106  103  106 1   
   107  103  111 1   
   108  104  105 2   
   109  104  121 1   
   110  106  107 1   
   111  106  108 1   
   112  106  112 1   
   113  107  109 1   
   114  107  113 1   
   115  107  114 1   
   116  108  115 1   
   117  108  116 1   
   118  108  117 1   
   119  109  118 1   
   120  109  119 1   
   121  109  120 1   
   122  121  122 1   
   123  121  127 1   
   124  122  123 1   
   125  122  125 1   
   126  122  128 1   
   127  123  124 2   
   128  123  132 1   
   129  125  126 1   
   130  125  129 1   
   131  125  130 1   
   132  126  131 1   
   133  132  133 1   
   134  132  137 1   
   135  133  134 1   
   136  133  136 1   
   137  133  138 1   
   138  134  135 2   
   139  134  142 1   
   140  136  139 1   
   141  136  140 1   
   142  136  141 1   
   143  142  143 1   
   144  142  147 1   
   145  143  144 1   
   146  143  146 1   
   147  143  148 1   
   148  144  145 2   
   149  144  152 1   
   150  146  149 1   
   151  146  150 1   
   152  146  151 1   
   153  152  153 1   
   154  152  161 1   
   155  153  154 1   
   156  153  156 1   
   157  153  162 1   
   158  154  155 2   
   159  154  167 1   
   160  156  157 1   
   161  156  163 1   
   162  156  164 1   
   163  157  158 1   
   164  157  165 1   
   165  157  166 1   
   166  158  159 1   
   167  158  160 1   
   168  167  168 1   
   169  167  172 1   
   170  168  169 1   
   171  168  170 1   
   172  168  171 1   
   173  174  175 1   
   174  174  176 1   
   175  177  178 1   
   176  177  179 1   
@<TRIPOS>SUBSTRUCTURE
     1 MOL         1 TEMP              0 ****  ****    0 ROOT
