@<TRIPOS>MOLECULE
MOL
  172   171     1     0     0
SMALL
resp


@<TRIPOS>ATOM
      1 C1         -0.2480   -3.3630    5.5470 c3        1 MOL     -0.442639
      2 C2          0.4690   -3.1660    4.2010 c         1 MOL      0.705690
      3 O1          0.0140   -3.7150    3.1970 o         1 MOL     -0.579858
      4 H1          0.4210   -3.0790    6.3600 hc        1 MOL      0.113994
      5 H2         -1.1410   -2.7390    5.5790 hc        1 MOL      0.113994
      6 H3         -0.5310   -4.4100    5.6590 hc        1 MOL      0.113994
      7 N1          1.6680   -2.6650    4.0760 n         1 MOL     -0.596992
      8 C3          2.3800   -2.2340    2.8660 c3        1 MOL      0.370874
      9 C4          2.9670   -3.4790    2.1600 c         1 MOL      0.468425
     10 O2          3.9990   -4.0630    2.6710 o         1 MOL     -0.585036
     11 C5          3.4800   -1.1910    3.0580 c3        1 MOL     -0.426704
     12 C6          4.2160   -0.7270    1.8620 c         1 MOL      0.967515
     13 O3          3.6660   -0.6640    0.7550 o         1 MOL     -0.782616
     14 O4          5.3260   -0.1450    1.9940 o         1 MOL     -0.782616
     15 H4          1.9920   -2.3240    4.9750 hn        1 MOL      0.283826
     16 H5          1.6710   -1.7520    2.1890 h1        1 MOL      0.020974
     17 H6          4.2100   -1.6430    3.7270 hc        1 MOL      0.071381
     18 H7          2.8930   -0.3290    3.3870 hc        1 MOL      0.071381
     19 N2          2.4180   -3.7780    0.9800 n         1 MOL     -0.439897
     20 C7          2.6440   -4.9340    0.2220 c3        1 MOL      0.423102
     21 C8          3.5660   -4.8520   -0.9950 c         1 MOL      0.336254
     22 O5          4.1220   -5.8830   -1.2850 o         1 MOL     -0.557896
     23 C9          1.3330   -5.6560   -0.2130 c3        1 MOL     -0.258143
     24 H8          1.8590   -3.0910    0.4970 hn        1 MOL      0.278428
     25 H9          3.1940   -5.7420    0.7080 h1        1 MOL     -0.018818
     26 H10         0.8250   -4.9970   -0.9090 hc        1 MOL      0.052748
     27 H11         1.5060   -6.6440   -0.6250 hc        1 MOL      0.052748
     28 H12         0.7330   -5.7510    0.6910 hc        1 MOL      0.052748
     29 N3          3.8140   -3.7050   -1.6700 n         1 MOL     -0.167049
     30 C10         4.8500   -3.5490   -2.7380 c3        1 MOL     -0.168682
     31 C11         6.1400   -2.9290   -2.0670 c         1 MOL      0.482855
     32 O6          7.2160   -2.7870   -2.6270 o         1 MOL     -0.530777
     33 C12         4.5110   -2.7560   -3.9460 c3        1 MOL      0.061397
     34 C13         3.9820   -1.3920   -3.6400 c         1 MOL      0.562752
     35 O7          3.9740   -0.5010   -4.5270 o         1 MOL     -0.675511
     36 O8          3.4340   -1.1120   -2.5350 o         1 MOL     -0.675511
     37 H13         3.1970   -2.9260   -1.5040 hn        1 MOL      0.126175
     38 H14         5.1260   -4.5630   -3.0340 h1        1 MOL      0.110279
     39 H15         3.8240   -3.2660   -4.6210 hc        1 MOL      0.015096
     40 H16         5.3590   -2.7260   -4.6450 hc        1 MOL      0.015096
     41 N4          6.0330   -2.6890   -0.7060 n         1 MOL     -0.181983
     42 C14         7.1530   -2.2170    0.0790 c3        1 MOL     -0.336251
     43 C15         7.4410   -0.7590   -0.2680 c         1 MOL      0.630537
     44 O9          8.5930   -0.3430   -0.1580 o         1 MOL     -0.635474
     45 H17         5.1360   -2.8250   -0.2450 hn        1 MOL      0.172034
     46 H18         8.0810   -2.7270   -0.2160 h1        1 MOL      0.145102
     47 H19         6.9070   -2.3460    1.1260 h1        1 MOL      0.145102
     48 N5          6.5150    0.0890   -0.7280 n         1 MOL     -0.127614
     49 C16         6.7960    1.4810   -1.2090 c3        1 MOL     -0.223327
     50 C17         6.4560    2.6450   -0.2160 c         1 MOL      0.472535
     51 O10         6.5320    3.8250   -0.6430 o         1 MOL     -0.559794
     52 C18         6.0950    1.7470   -2.5850 c3        1 MOL     -0.009989
     53 C19         4.5870    1.8690   -2.4060 c         1 MOL      0.425865
     54 N6          4.0660    2.5070   -3.4130 n         1 MOL     -0.694380
     55 O11         4.0000    1.6740   -1.4140 o         1 MOL     -0.333869
     56 H20         5.5720   -0.1810   -0.4830 hn        1 MOL      0.085453
     57 H21         7.8760    1.5080   -1.3730 h1        1 MOL      0.152816
     58 H22         6.3260    0.8350   -3.1300 hc        1 MOL      0.044036
     59 H23         6.6110    2.5940   -3.0140 hc        1 MOL      0.044036
     60 H24         4.5060    2.8870   -4.2430 hn        1 MOL      0.349906
     61 H25         3.0610    2.6080   -3.3320 hn        1 MOL      0.349906
     62 N7          6.1430    2.4610    1.0580 n         1 MOL     -0.303261
     63 C20         6.0690    3.4390    2.1760 c3        1 MOL     -0.049967
     64 C21         4.7120    4.0450    2.2490 c         1 MOL      0.411603
     65 O12         4.5660    5.1020    3.0020 o         1 MOL     -0.605952
     66 H26         5.9040    1.4940    1.2750 hn        1 MOL      0.285426
     67 H27         6.8180    4.2140    2.0290 h1        1 MOL      0.100133
     68 H28         6.3830    2.9550    3.0980 h1        1 MOL      0.100133
     69 N8          3.6610    3.7010    1.5110 n         1 MOL     -0.027443
     70 C22         2.3320    4.4450    1.4410 c3        1 MOL     -0.293623
     71 C23         1.2670    3.3690    1.2740 c         1 MOL      0.519028
     72 O13         1.5680    2.2800    0.7280 o         1 MOL     -0.577945
     73 C24         2.2920    5.5030    0.2450 c3        1 MOL      0.339073
     74 C25         3.4110    6.5230    0.2870 c3        1 MOL     -0.297640
     75 O14         2.3080    4.8520   -1.0290 oh        1 MOL     -0.549996
     76 H29         3.7660    2.9550    0.8300 hn        1 MOL      0.122281
     77 H30         2.1190    4.9050    2.4090 h1        1 MOL      0.138246
     78 H31         1.3540    6.0610    0.1820 h1        1 MOL     -0.003723
     79 H32         2.4030    5.5320   -1.6880 ho        1 MOL      0.372242
     80 H33         3.5080    6.8930    1.3080 hc        1 MOL      0.085318
     81 H34         4.3480    6.1350   -0.1180 hc        1 MOL      0.085318
     82 H35         3.1420    7.4480   -0.2110 hc        1 MOL      0.085318
     83 N9          0.0600    3.5410    1.7700 n         1 MOL     -0.235178
     84 C26        -1.1010    2.7280    1.5900 c3        1 MOL     -0.100474
     85 C27        -1.7440    2.8990    0.2160 c         1 MOL      0.465616
     86 O15        -2.2050    3.9550   -0.2170 o         1 MOL     -0.592068
     87 C28        -2.0120    2.8460    2.8250 c3        1 MOL      0.032695
     88 C29        -1.2270    2.2060    4.0500 c3        1 MOL      0.057277
     89 C30        -3.2940    2.0890    2.7570 c3        1 MOL     -0.026599
     90 C31        -1.9740    2.4360    5.3130 c3        1 MOL     -0.057172
     91 H36        -0.0940    4.4530    2.1670 hn        1 MOL      0.208743
     92 H37        -0.6720    1.7270    1.5560 h1        1 MOL      0.102968
     93 H38        -2.1770    3.9020    2.9960 hc        1 MOL      0.033716
     94 H39        -0.2680    2.7290    4.1330 hc        1 MOL     -0.005206
     95 H40        -0.9750    1.1430    3.9930 hc        1 MOL     -0.005206
     96 H41        -3.1470    1.0180    2.8540 hc        1 MOL      0.001120
     97 H42        -4.0250    2.5050    3.4450 hc        1 MOL      0.001120
     98 H43        -3.7350    2.2230    1.7680 hc        1 MOL      0.001120
     99 H44        -1.4730    2.1200    6.2390 hc        1 MOL     -0.002589
    100 H45        -2.1210    3.5110    5.2700 hc        1 MOL     -0.002589
    101 H46        -2.9740    2.0290    5.3460 hc        1 MOL     -0.002589
    102 N10        -1.9050    1.8080   -0.5380 n         1 MOL     -0.152888
    103 C32        -2.8740    1.6720   -1.6380 c3        1 MOL      0.085516
    104 C33        -4.2130    1.2400   -1.0510 c         1 MOL      0.569741
    105 O16        -4.2540    0.5340   -0.0400 o         1 MOL     -0.359893
    106 C34        -2.3980    0.6330   -2.7300 c3        1 MOL     -0.309927
    107 C35        -1.0050    0.8670   -3.2660 c         1 MOL      0.811970
    108 O17        -0.8130    1.9170   -3.8760 o         1 MOL     -0.722312
    109 O18        -0.1290   -0.0440   -3.0440 o         1 MOL     -0.722312
    110 H47        -1.5330    0.9250   -0.2060 hn        1 MOL      0.127749
    111 H48        -2.9540    2.6540   -2.1180 h1        1 MOL      0.053201
    112 H49        -3.0330    0.7440   -3.6100 hc        1 MOL      0.078648
    113 H50        -2.3890   -0.3800   -2.3360 hc        1 MOL      0.078648
    114 N11        -5.3150    1.4760   -1.7630 n         1 MOL     -0.866661
    115 C36        -6.7240    1.2130   -1.3480 c3        1 MOL      0.720492
    116 C37        -6.9600   -0.2650   -0.8700 c         1 MOL      0.184880
    117 O19        -7.6350   -0.5080    0.1430 o         1 MOL     -0.452366
    118 C38        -7.7140    1.7090   -2.3630 c3        1 MOL     -0.343981
    119 C39        -9.1520    1.5550   -1.8380 ca        1 MOL      0.167266
    120 C40        -9.4920    2.0140   -0.5490 ca        1 MOL     -0.233094
    121 C41       -10.1170    0.8720   -2.6660 ca        1 MOL     -0.233094
    122 C42       -10.8690    1.8710   -0.1220 ca        1 MOL     -0.053208
    123 C43       -11.4240    0.7260   -2.2160 ca        1 MOL     -0.053208
    124 C44       -11.7950    1.2810   -0.9470 ca        1 MOL     -0.166999
    125 H51        -5.3140    1.9530   -2.6530 hn        1 MOL      0.351285
    126 H52        -6.9180    1.8380   -0.4820 h1        1 MOL     -0.027159
    127 H53        -7.5950    1.1280   -3.2830 hc        1 MOL      0.077213
    128 H54        -7.4900    2.7580   -2.5440 hc        1 MOL      0.077213
    129 H55        -8.7800    2.3880    0.1700 ha        1 MOL      0.138451
    130 H56        -9.8560    0.4740   -3.6290 ha        1 MOL      0.138451
    131 H57       -11.1650    2.2490    0.8460 ha        1 MOL      0.101860
    132 H58       -12.1290    0.2240   -2.8630 ha        1 MOL      0.101860
    133 H59       -12.8240    1.2380   -0.5980 ha        1 MOL      0.105419
    134 N12        -6.3030   -1.2660   -1.5210 n         1 MOL     -0.105600
    135 C45        -6.4530   -2.6440   -0.9970 c3        1 MOL      0.122745
    136 C46        -5.7490   -2.8300    0.3990 c         1 MOL      0.252763
    137 O20        -6.2630   -3.5620    1.2740 o         1 MOL     -0.490314
    138 C47        -5.8880   -3.5460   -2.0880 c3        1 MOL      0.067926
    139 C48        -5.9990   -2.7000   -3.4070 c3        1 MOL     -0.279211
    140 C49        -5.7730   -1.2430   -2.8840 c3        1 MOL      0.150870
    141 H60        -7.4920   -2.9450   -0.8520 h1        1 MOL      0.036758
    142 H61        -4.8400   -3.7890   -1.9300 hc        1 MOL      0.020286
    143 H62        -6.4610   -4.4650   -2.1110 hc        1 MOL      0.020286
    144 H63        -5.1780   -2.8710   -4.0980 hc        1 MOL      0.075784
    145 H64        -6.9970   -2.6870   -3.8520 hc        1 MOL      0.075784
    146 H65        -4.7140   -0.9620   -2.8480 h1        1 MOL      0.000390
    147 H66        -6.2440   -0.4870   -3.5220 h1        1 MOL      0.000390
    148 N13        -4.5210   -2.3000    0.5730 n         1 MOL     -0.232550
    149 C50        -3.7140   -2.3940    1.8160 c3        1 MOL     -0.096854
    150 C51        -4.4590   -1.7120    2.9730 c         1 MOL      0.472719
    151 O21        -4.4350   -2.1850    4.1020 o         1 MOL     -0.574518
    152 C52        -2.2960   -1.8250    1.7250 c3        1 MOL     -0.011539
    153 C53        -1.5280   -2.2360    0.4730 c3        1 MOL     -0.067586
    154 C54        -0.2280   -1.4880    0.2460 c         1 MOL      0.607063
    155 O22        -0.2430   -0.2460    0.3070 o         1 MOL     -0.696397
    156 O23         0.7690   -2.0350   -0.2920 o         1 MOL     -0.696397
    157 H67        -4.2810   -1.6060   -0.1330 hn        1 MOL      0.192482
    158 H68        -3.7100   -3.4500    2.0730 h1        1 MOL      0.131119
    159 H69        -1.8690   -2.2200    2.6490 hc        1 MOL      0.041544
    160 H70        -2.3060   -0.7370    1.7010 hc        1 MOL      0.041544
    161 H71        -2.1340   -2.1400   -0.4400 hc        1 MOL      0.035332
    162 H72        -1.4410   -3.3130    0.5840 hc        1 MOL      0.035332
    163 N14        -5.2570   -0.7180    2.6770 n         1 MOL      0.074029
    164 C55        -6.1840   -0.0410    3.5920 c3        1 MOL     -0.237941
    165 H73        -5.6440    0.2810    4.4830 h1        1 MOL      0.085938
    166 H74        -6.6150    0.8290    3.0970 h1        1 MOL      0.085938
    167 H75        -6.9800   -0.7280    3.8780 h1        1 MOL      0.085938
    168 H76        -5.1490   -0.2900    1.7770 hn        1 MOL     -0.011767
    169 Ca1         1.8540    0.2530   -1.1260 Ca        1 MOL      1.711370
    170 O24         1.2490    2.6150   -2.1200 oh        1 MOL     -0.996008
    171 H77         1.3980    3.4120   -1.6320 ho        1 MOL      0.446345
    172 H78         0.5760    2.8440   -2.7560 ho        1 MOL      0.446345
@<TRIPOS>BOND
     1    1    2 1   
     2    1    4 1   
     3    1    5 1   
     4    1    6 1   
     5    2    3 2   
     6    2    7 1   
     7    7    8 1   
     8    7   15 1   
     9    8    9 1   
    10    8   11 1   
    11    8   16 1   
    12    9   10 2   
    13    9   19 1   
    14   11   12 1   
    15   11   17 1   
    16   11   18 1   
    17   12   13 1   
    18   12   14 1   
    19   19   20 1   
    20   19   24 1   
    21   20   21 1   
    22   20   23 1   
    23   20   25 1   
    24   21   22 2   
    25   21   29 1   
    26   23   26 1   
    27   23   27 1   
    28   23   28 1   
    29   29   30 1   
    30   29   37 1   
    31   30   31 1   
    32   30   33 1   
    33   30   38 1   
    34   31   32 2   
    35   31   41 1   
    36   33   34 1   
    37   33   39 1   
    38   33   40 1   
    39   34   35 1   
    40   34   36 1   
    41   41   42 1   
    42   41   45 1   
    43   42   43 1   
    44   42   46 1   
    45   42   47 1   
    46   43   44 2   
    47   43   48 1   
    48   48   49 1   
    49   48   56 1   
    50   49   50 1   
    51   49   52 1   
    52   49   57 1   
    53   50   51 2   
    54   50   62 1   
    55   52   53 1   
    56   52   58 1   
    57   52   59 1   
    58   53   54 1   
    59   53   55 2   
    60   54   60 1   
    61   54   61 1   
    62   62   63 1   
    63   62   66 1   
    64   63   64 1   
    65   63   67 1   
    66   63   68 1   
    67   64   65 2   
    68   64   69 1   
    69   69   70 1   
    70   69   76 1   
    71   70   71 1   
    72   70   73 1   
    73   70   77 1   
    74   71   72 2   
    75   71   83 1   
    76   73   74 1   
    77   73   75 1   
    78   73   78 1   
    79   74   80 1   
    80   74   81 1   
    81   74   82 1   
    82   75   79 1   
    83   83   84 1   
    84   83   91 1   
    85   84   85 1   
    86   84   87 1   
    87   84   92 1   
    88   85   86 2   
    89   85  102 1   
    90   87   88 1   
    91   87   89 1   
    92   87   93 1   
    93   88   90 1   
    94   88   94 1   
    95   88   95 1   
    96   89   96 1   
    97   89   97 1   
    98   89   98 1   
    99   90   99 1   
   100   90  100 1   
   101   90  101 1   
   102  102  103 1   
   103  102  110 1   
   104  103  104 1   
   105  103  106 1   
   106  103  111 1   
   107  104  105 2   
   108  104  114 1   
   109  106  107 1   
   110  106  112 1   
   111  106  113 1   
   112  107  108 1   
   113  107  109 1   
   114  114  115 1   
   115  114  125 1   
   116  115  116 1   
   117  115  118 1   
   118  115  126 1   
   119  116  117 2   
   120  116  134 1   
   121  118  119 1   
   122  118  127 1   
   123  118  128 1   
   124  119  120 ar  
   125  119  121 ar  
   126  120  122 ar  
   127  120  129 1   
   128  121  123 ar  
   129  121  130 1   
   130  122  124 ar  
   131  122  131 1   
   132  123  124 ar  
   133  123  132 1   
   134  124  133 1   
   135  134  135 1   
   136  134  140 1   
   137  135  136 1   
   138  135  138 1   
   139  135  141 1   
   140  136  137 2   
   141  136  148 1   
   142  138  139 1   
   143  138  142 1   
   144  138  143 1   
   145  139  140 1   
   146  139  144 1   
   147  139  145 1   
   148  140  146 1   
   149  140  147 1   
   150  148  149 1   
   151  148  157 1   
   152  149  150 1   
   153  149  152 1   
   154  149  158 1   
   155  150  151 2   
   156  150  163 1   
   157  152  153 1   
   158  152  159 1   
   159  152  160 1   
   160  153  154 1   
   161  153  161 1   
   162  153  162 1   
   163  154  155 1   
   164  154  156 1   
   165  163  164 1   
   166  163  168 1   
   167  164  165 1   
   168  164  166 1   
   169  164  167 1   
   170  170  171 1   
   171  170  172 1   
@<TRIPOS>SUBSTRUCTURE
     1 MOL         1 TEMP              0 ****  ****    0 ROOT
