@<TRIPOS>MOLECULE
MOL
  175   173     1     0     0
SMALL
resp


@<TRIPOS>ATOM
      1 C1          1.1340    4.8850    5.2530 c3        1 MOL     -0.414563
      2 C2          0.5630    4.6280    3.9020 c         1 MOL      0.754030
      3 O1          1.2440    4.7850    2.8990 o         1 MOL     -0.575996
      4 H1          2.1470    5.2720    5.1510 hc        1 MOL      0.105209
      5 H2          0.5170    5.6150    5.7750 hc        1 MOL      0.105209
      6 H3          1.1560    3.9550    5.8220 hc        1 MOL      0.105209
      7 N1         -0.7300    4.3910    3.6920 n         1 MOL     -0.659963
      8 C3         -1.2730    3.9080    2.4200 c3        1 MOL      0.271774
      9 C4         -1.6460    4.9160    1.3230 c         1 MOL      0.568242
     10 O2         -2.1920    5.9580    1.6780 o         1 MOL     -0.586858
     11 C5         -2.5290    3.0970    2.8020 c3        1 MOL     -0.376550
     12 C6         -3.3840    2.5990    1.6560 c         1 MOL      0.892467
     13 O3         -4.5740    2.3450    1.8860 o         1 MOL     -0.720929
     14 O4         -2.8980    2.2720    0.5820 o         1 MOL     -0.720929
     15 H4         -1.3540    4.4720    4.4910 hn        1 MOL      0.318270
     16 H5         -0.5620    3.1780    2.0330 h1        1 MOL      0.036851
     17 H6         -3.1430    3.7100    3.4640 hc        1 MOL      0.065884
     18 H7         -2.1940    2.2450    3.3950 hc        1 MOL      0.065884
     19 N2         -1.4470    4.5360    0.0880 n         1 MOL     -0.446795
     20 C7         -1.5480    5.3370   -1.1540 c3        1 MOL      0.347401
     21 C8         -2.6270    4.8690   -2.1580 c         1 MOL      0.416168
     22 O5         -2.8830    5.5810   -3.1160 o         1 MOL     -0.577930
     23 C9         -0.2390    5.4810   -1.8290 c3        1 MOL     -0.274275
     24 H8         -0.9950    3.6470   -0.0810 hn        1 MOL      0.241121
     25 H9         -1.9520    6.2970   -0.8220 h1        1 MOL     -0.017984
     26 H10         0.1570    4.4760   -1.9700 hc        1 MOL      0.064266
     27 H11        -0.4500    5.9730   -2.7740 hc        1 MOL      0.064266
     28 H12         0.4530    6.0060   -1.1690 hc        1 MOL      0.064266
     29 N3         -3.3070    3.7410   -2.0080 n         1 MOL     -0.144671
     30 C10        -4.4400    3.3210   -2.8870 c3        1 MOL      0.010355
     31 C11        -5.6500    2.6990   -2.1870 c         1 MOL      0.336814
     32 O6         -6.6220    2.5240   -2.8780 o         1 MOL     -0.479503
     33 C12        -3.9030    2.3130   -3.9660 c3        1 MOL     -0.196633
     34 C13        -3.2010    1.1050   -3.4750 c         1 MOL      0.726118
     35 O7         -3.4440    0.6470   -2.3340 o         1 MOL     -0.670227
     36 O8         -2.3460    0.5980   -4.2000 o         1 MOL     -0.670227
     37 H13        -3.1980    3.1920   -1.1770 hn        1 MOL      0.035883
     38 H14        -4.7970    4.2160   -3.3990 h1        1 MOL      0.092783
     39 H15        -3.2400    2.8390   -4.6610 hc        1 MOL      0.047874
     40 H16        -4.7960    1.9570   -4.4660 hc        1 MOL      0.047874
     41 N4         -5.6320    2.3100   -0.8680 n         1 MOL     -0.154352
     42 C14        -6.8680    1.8050   -0.2780 c3        1 MOL     -0.315380
     43 C15        -7.2770    0.3630   -0.8520 c         1 MOL      0.412783
     44 O9         -8.5160    0.0740   -0.8660 o         1 MOL     -0.574811
     45 H17        -4.8320    2.4530   -0.2650 hn        1 MOL      0.180101
     46 H18        -7.6450    2.5380   -0.5090 h1        1 MOL      0.154160
     47 H19        -6.7430    1.7310    0.7940 h1        1 MOL      0.154160
     48 N5         -6.3570   -0.4130   -1.4390 n         1 MOL     -0.081097
     49 C16        -6.6270   -1.8080   -1.8790 c3        1 MOL     -0.120032
     50 C17        -6.8600   -2.7590   -0.7270 c         1 MOL      0.427363
     51 O10        -7.2830   -3.8890   -0.9250 o         1 MOL     -0.530288
     52 C18        -5.5970   -2.2460   -2.8850 c3        1 MOL     -0.071513
     53 C19        -4.1860   -2.2890   -2.3470 c         1 MOL      0.375345
     54 N6         -3.1670   -2.4420   -3.1440 n         1 MOL     -0.596771
     55 O11        -3.9130   -2.1650   -1.1460 o         1 MOL     -0.123027
     56 H20        -5.4200   -0.0480   -1.4240 hn        1 MOL      0.122073
     57 H21        -7.5890   -1.7850   -2.3960 h1        1 MOL      0.114162
     58 H22        -5.5990   -1.4940   -3.6700 hc        1 MOL      0.051104
     59 H23        -5.8830   -3.1880   -3.3520 hc        1 MOL      0.051104
     60 H24        -3.4390   -2.5630   -4.1060 hn        1 MOL      0.321154
     61 H25        -2.2360   -2.2950   -2.7660 hn        1 MOL      0.321154
     62 N7         -6.5610   -2.3150    0.4980 n         1 MOL     -0.144744
     63 C20        -6.6700   -3.0590    1.7840 c3        1 MOL     -0.151054
     64 C21        -5.3630   -3.8180    2.1700 c         1 MOL      0.612625
     65 O12        -5.4180   -4.5990    3.1760 o         1 MOL     -0.615468
     66 H26        -6.3660   -1.3290    0.5940 hn        1 MOL      0.163758
     67 H27        -7.4030   -3.8610    1.7110 h1        1 MOL      0.086704
     68 H28        -7.0120   -2.4130    2.5920 h1        1 MOL      0.086704
     69 N8         -4.2130   -3.5550    1.5370 n         1 MOL     -0.355471
     70 C22        -2.9120   -4.2510    1.7400 c3        1 MOL     -0.034689
     71 C23        -1.7070   -3.3390    1.4580 c         1 MOL      0.521586
     72 O13        -1.7190   -2.5460    0.5080 o         1 MOL     -0.544375
     73 C24        -2.7520   -5.4100    0.6950 c3        1 MOL      0.329696
     74 C25        -3.3730   -6.6750    1.2330 c3        1 MOL     -0.363239
     75 O14        -3.5600   -5.1780   -0.5090 oh        1 MOL     -0.518497
     76 H29        -4.3230   -2.9390    0.7430 hn        1 MOL      0.089092
     77 H30        -2.7280   -4.5400    2.7680 h1        1 MOL      0.092147
     78 H31        -1.7000   -5.6260    0.4920 h1        1 MOL      0.050385
     79 H32        -3.2670   -4.3870   -0.9660 ho        1 MOL      0.259405
     80 H33        -3.2070   -7.5310    0.5690 hc        1 MOL      0.088157
     81 H34        -2.8650   -6.9210    2.1620 hc        1 MOL      0.088157
     82 H35        -4.4140   -6.6060    1.5290 hc        1 MOL      0.088157
     83 N9         -0.6680   -3.4850    2.3250 n         1 MOL     -0.598447
     84 C26         0.5410   -2.7030    2.1670 c3        1 MOL      0.022064
     85 C27         1.3570   -3.1550    0.9500 c         1 MOL      0.645089
     86 O15         1.6500   -4.3070    0.7070 o         1 MOL     -0.613555
     87 C28         1.3170   -2.6350    3.5040 c3        1 MOL      0.045845
     88 C29         0.6960   -1.4490    4.2860 c3        1 MOL      0.080820
     89 C30         2.8380   -2.4430    3.2400 c3        1 MOL     -0.309836
     90 C31         1.3810   -1.1930    5.5950 c3        1 MOL     -0.078721
     91 H36        -0.6780   -4.0790    3.1410 hn        1 MOL      0.320657
     92 H37         0.2290   -1.6630    2.0220 h1        1 MOL      0.080579
     93 H38         1.1370   -3.5040    4.1280 hc        1 MOL      0.025404
     94 H39        -0.3600   -1.6780    4.3970 hc        1 MOL     -0.023180
     95 H40         0.7660   -0.6020    3.6110 hc        1 MOL     -0.023180
     96 H41         3.2510   -3.3190    2.7420 hc        1 MOL      0.060826
     97 H42         3.1650   -1.6070    2.6100 hc        1 MOL      0.060826
     98 H43         3.4010   -2.2430    4.1500 hc        1 MOL      0.060826
     99 H44         2.4050   -0.8340    5.4770 hc        1 MOL      0.011870
    100 H45         0.8460   -0.4390    6.1760 hc        1 MOL      0.011870
    101 H46         1.3710   -2.1030    6.2080 hc        1 MOL      0.011870
    102 N10         1.7540   -2.1530    0.1550 n         1 MOL     -0.167773
    103 C32         2.6660   -2.3350   -0.9830 c3        1 MOL     -0.011538
    104 C33         4.1090   -1.8960   -0.6960 c         1 MOL      0.364541
    105 O16         4.2450   -1.1400    0.2870 o         1 MOL     -0.263223
    106 C34         2.0230   -1.5570   -2.1280 c3        1 MOL     -0.247535
    107 C35         0.5250   -1.9430   -2.4870 c         1 MOL      0.675261
    108 O17        -0.3870   -1.4600   -1.7380 o         1 MOL     -0.661742
    109 O18         0.2650   -2.6210   -3.5160 o         1 MOL     -0.661742
    110 H47         1.5150   -1.2490    0.5350 hn        1 MOL      0.101279
    111 H48         2.7470   -3.3710   -1.3010 h1        1 MOL      0.083417
    112 H49         2.6250   -1.6410   -3.0370 hc        1 MOL      0.067528
    113 H50         1.9830   -0.5060   -1.8500 hc        1 MOL      0.067528
    114 N11         5.1110   -2.3180   -1.5200 n         1 MOL     -0.556404
    115 C36         6.5210   -1.8920   -1.2220 c3        1 MOL      0.132752
    116 C37         6.6740   -0.4070   -0.9800 c         1 MOL      0.454115
    117 O19         7.3780   -0.0020   -0.0370 o         1 MOL     -0.518581
    118 C38         7.3370   -2.5150   -2.2990 c3        1 MOL     -0.084547
    119 C39         8.8370   -2.2790   -2.2110 ca        1 MOL      0.130320
    120 C40         9.5850   -2.8840   -1.1690 ca        1 MOL     -0.260385
    121 C41         9.3970   -1.2390   -3.0020 ca        1 MOL     -0.260385
    122 C42        10.8600   -2.3930   -0.8790 ca        1 MOL      0.005599
    123 C43        10.7410   -0.9090   -2.8010 ca        1 MOL      0.005599
    124 C44        11.5020   -1.4820   -1.7740 ca        1 MOL     -0.220135
    125 H51         4.9380   -2.8140   -2.3860 hn        1 MOL      0.353111
    126 H52         6.7850   -2.3610   -0.2820 h1        1 MOL      0.092329
    127 H53         6.9980   -2.0700   -3.2290 hc        1 MOL      0.044175
    128 H54         7.1560   -3.5710   -2.5210 hc        1 MOL      0.044175
    129 H55         9.1500   -3.5230   -0.4250 ha        1 MOL      0.138630
    130 H56         8.8710   -0.7520   -3.8110 ha        1 MOL      0.138630
    131 H57        11.4810   -2.7160   -0.0520 ha        1 MOL      0.085258
    132 H58        11.2110   -0.1210   -3.3780 ha        1 MOL      0.085258
    133 H59        12.5060   -1.1370   -1.5770 ha        1 MOL      0.125912
    134 N12         6.0680    0.5750   -1.7350 n         1 MOL     -0.058822
    135 C45         6.2480    1.9960   -1.4300 c3        1 MOL      0.099807
    136 C46         5.6830    2.4010   -0.1000 c         1 MOL      0.339962
    137 O20         6.1580    3.2320    0.6450 o         1 MOL     -0.498094
    138 C47         5.7100    2.7850   -2.6610 c3        1 MOL     -0.280054
    139 C48         4.7800    1.7890   -3.2270 c3        1 MOL      0.068387
    140 C49         5.4820    0.4940   -3.0440 c3        1 MOL     -0.044770
    141 H60         7.2920    2.2770   -1.3010 h1        1 MOL      0.033836
    142 H61         5.2120    3.6900   -2.3170 hc        1 MOL      0.097254
    143 H62         6.5340    2.8880   -3.3720 hc        1 MOL      0.097254
    144 H63         3.9010    1.7900   -2.5940 hc        1 MOL      0.032011
    145 H64         4.5290    2.0060   -4.2680 hc        1 MOL      0.032011
    146 H65         4.7510   -0.3080   -3.1270 h1        1 MOL      0.007877
    147 H66         6.3160    0.3650   -3.7310 h1        1 MOL      0.007877
    148 N13         4.5700    1.7320    0.3520 n         1 MOL     -0.088264
    149 C50         3.9560    2.0000    1.6060 c3        1 MOL     -0.026207
    150 C51         4.7610    1.3370    2.7930 c         1 MOL      0.348885
    151 O21         4.8930    1.9440    3.8850 o         1 MOL     -0.538608
    152 C52         2.5530    1.4230    1.5760 c3        1 MOL     -0.046433
    153 C53         1.6550    2.1910    0.5400 c3        1 MOL      0.016033
    154 C54         0.3610    1.3720    0.1960 c         1 MOL      0.533084
    155 O22        -0.0160    0.4000    0.8740 o         1 MOL     -0.639670
    156 O23        -0.3710    1.6420   -0.7890 o         1 MOL     -0.639670
    157 H67         4.3370    0.8500   -0.0860 hn        1 MOL      0.128402
    158 H68         3.7950    3.0500    1.8320 h1        1 MOL      0.098124
    159 H69         2.1430    1.4990    2.5860 hc        1 MOL      0.035358
    160 H70         2.6250    0.3740    1.2960 hc        1 MOL      0.035358
    161 H71         2.2170    2.1770   -0.3840 hc        1 MOL     -0.003694
    162 H72         1.4790    3.2360    0.8240 hc        1 MOL     -0.003694
    163 N14         5.5210    0.2210    2.4980 n         1 MOL      0.092540
    164 C55         6.5450   -0.3140    3.4630 c3        1 MOL     -0.269370
    165 H73         7.3750    0.3880    3.5380 h1        1 MOL      0.093461
    166 H74         6.0890   -0.4420    4.4450 h1        1 MOL      0.093461
    167 H75         6.9150   -1.2760    3.1050 h1        1 MOL      0.093461
    168 H76         5.4010   -0.1570    1.5730 hn        1 MOL     -0.043130
    169 Ca1        -2.3110   -0.0840   -0.3010 Ca        1 MOL      1.541969
    170 O24        -4.6410   -0.1330    1.1440 oh        1 MOL     -0.699007
    171 H77        -4.5110   -0.6200    1.9650 ho        1 MOL      0.345604
    172 H78        -4.6210    0.7820    1.4050 ho        1 MOL      0.345604
    173 O25        -1.8090   -0.2260    2.5840 oh        1 MOL     -0.699007
    174 H79        -0.9270    0.1100    2.4170 ho        1 MOL      0.345604
    175 H80        -1.9650   -0.0320    3.5140 ho        1 MOL      0.345604
@<TRIPOS>BOND
     1    1    2 1   
     2    1    4 1   
     3    1    5 1   
     4    1    6 1   
     5    2    3 2   
     6    2    7 1   
     7    7    8 1   
     8    7   15 1   
     9    8    9 1   
    10    8   11 1   
    11    8   16 1   
    12    9   10 2   
    13    9   19 1   
    14   11   12 1   
    15   11   17 1   
    16   11   18 1   
    17   12   13 1   
    18   12   14 1   
    19   19   20 1   
    20   19   24 1   
    21   20   21 1   
    22   20   23 1   
    23   20   25 1   
    24   21   22 2   
    25   21   29 1   
    26   23   26 1   
    27   23   27 1   
    28   23   28 1   
    29   29   30 1   
    30   29   37 1   
    31   30   31 1   
    32   30   33 1   
    33   30   38 1   
    34   31   32 2   
    35   31   41 1   
    36   33   34 1   
    37   33   39 1   
    38   33   40 1   
    39   34   35 1   
    40   34   36 1   
    41   41   42 1   
    42   41   45 1   
    43   42   43 1   
    44   42   46 1   
    45   42   47 1   
    46   43   44 2   
    47   43   48 1   
    48   48   49 1   
    49   48   56 1   
    50   49   50 1   
    51   49   52 1   
    52   49   57 1   
    53   50   51 2   
    54   50   62 1   
    55   52   53 1   
    56   52   58 1   
    57   52   59 1   
    58   53   54 1   
    59   53   55 2   
    60   54   60 1   
    61   54   61 1   
    62   62   63 1   
    63   62   66 1   
    64   63   64 1   
    65   63   67 1   
    66   63   68 1   
    67   64   65 2   
    68   64   69 1   
    69   69   70 1   
    70   69   76 1   
    71   70   71 1   
    72   70   73 1   
    73   70   77 1   
    74   71   72 2   
    75   71   83 1   
    76   73   74 1   
    77   73   75 1   
    78   73   78 1   
    79   74   80 1   
    80   74   81 1   
    81   74   82 1   
    82   75   79 1   
    83   83   84 1   
    84   83   91 1   
    85   84   85 1   
    86   84   87 1   
    87   84   92 1   
    88   85   86 2   
    89   85  102 1   
    90   87   88 1   
    91   87   89 1   
    92   87   93 1   
    93   88   90 1   
    94   88   94 1   
    95   88   95 1   
    96   89   96 1   
    97   89   97 1   
    98   89   98 1   
    99   90   99 1   
   100   90  100 1   
   101   90  101 1   
   102  102  103 1   
   103  102  110 1   
   104  103  104 1   
   105  103  106 1   
   106  103  111 1   
   107  104  105 2   
   108  104  114 1   
   109  106  107 1   
   110  106  112 1   
   111  106  113 1   
   112  107  108 1   
   113  107  109 1   
   114  114  115 1   
   115  114  125 1   
   116  115  116 1   
   117  115  118 1   
   118  115  126 1   
   119  116  117 2   
   120  116  134 1   
   121  118  119 1   
   122  118  127 1   
   123  118  128 1   
   124  119  120 ar  
   125  119  121 ar  
   126  120  122 ar  
   127  120  129 1   
   128  121  123 ar  
   129  121  130 1   
   130  122  124 ar  
   131  122  131 1   
   132  123  124 ar  
   133  123  132 1   
   134  124  133 1   
   135  134  135 1   
   136  134  140 1   
   137  135  136 1   
   138  135  138 1   
   139  135  141 1   
   140  136  137 2   
   141  136  148 1   
   142  138  139 1   
   143  138  142 1   
   144  138  143 1   
   145  139  140 1   
   146  139  144 1   
   147  139  145 1   
   148  140  146 1   
   149  140  147 1   
   150  148  149 1   
   151  148  157 1   
   152  149  150 1   
   153  149  152 1   
   154  149  158 1   
   155  150  151 2   
   156  150  163 1   
   157  152  153 1   
   158  152  159 1   
   159  152  160 1   
   160  153  154 1   
   161  153  161 1   
   162  153  162 1   
   163  154  155 1   
   164  154  156 1   
   165  163  164 1   
   166  163  168 1   
   167  164  165 1   
   168  164  166 1   
   169  164  167 1   
   170  170  171 1   
   171  170  172 1   
   172  173  174 1   
   173  173  175 1   
@<TRIPOS>SUBSTRUCTURE
     1 MOL         1 TEMP              0 ****  ****    0 ROOT
