@<TRIPOS>MOLECULE
MOL
  175   173     1     0     0
SMALL
resp


@<TRIPOS>ATOM
      1 C1          0.8000    3.6050    5.7160 c3        1 MOL     -0.456511
      2 C2          0.1620    3.8470    4.3430 c         1 MOL      0.706745
      3 O1          0.8350    4.5010    3.5410 o         1 MOL     -0.522373
      4 H1          0.0220    3.5780    6.4780 hc        1 MOL      0.109922
      5 H2          1.3340    2.6540    5.7080 hc        1 MOL      0.109922
      6 H3          1.4980    4.4120    5.9400 hc        1 MOL      0.109922
      7 N1         -1.1440    3.5860    4.1850 n         1 MOL     -0.567365
      8 C3         -1.8170    3.5020    2.8930 c3        1 MOL     -0.007204
      9 C4         -1.8070    4.8550    2.0140 c         1 MOL      0.558226
     10 O2         -2.0330    5.9610    2.4570 o         1 MOL     -0.538170
     11 C5         -3.2760    2.9890    3.0450 c3        1 MOL      0.045055
     12 C6         -3.9230    2.8400    1.6780 c         1 MOL      0.573635
     13 O3         -3.2530    2.3550    0.7450 o         1 MOL     -0.651721
     14 O4         -5.1590    2.9510    1.5040 o         1 MOL     -0.651721
     15 H4         -1.6570    3.2970    5.0050 hn        1 MOL      0.304264
     16 H5         -1.2040    2.7480    2.3850 h1        1 MOL      0.067556
     17 H6         -3.9290    3.5800    3.6830 hc        1 MOL     -0.015661
     18 H7         -3.3040    2.0380    3.5790 hc        1 MOL     -0.015661
     19 N2         -1.7440    4.6780    0.6650 n         1 MOL     -0.480806
     20 C7         -1.7710    5.7160   -0.2790 c3        1 MOL      0.255399
     21 C8         -2.5620    5.3740   -1.5660 c         1 MOL      0.523363
     22 O5         -2.2890    5.9960   -2.5900 o         1 MOL     -0.562452
     23 C9         -0.3240    6.0750   -0.5700 c3        1 MOL     -0.323908
     24 H8         -1.6410    3.7460    0.2680 hn        1 MOL      0.341520
     25 H9         -2.3260    6.5550    0.1620 h1        1 MOL      0.007033
     26 H10        -0.2390    6.7980   -1.3730 hc        1 MOL      0.081038
     27 H11         0.2450    6.4340    0.2950 hc        1 MOL      0.081038
     28 H12         0.2070    5.1920   -0.9210 hc        1 MOL      0.081038
     29 N3         -3.3980    4.2960   -1.5910 n         1 MOL     -0.562563
     30 C10        -4.1150    3.8690   -2.7800 c3        1 MOL      0.133162
     31 C11        -5.3530    2.9780   -2.5870 c         1 MOL      0.347319
     32 O6         -6.0690    2.6880   -3.5500 o         1 MOL     -0.523637
     33 C12        -3.1810    3.1220   -3.7020 c3        1 MOL     -0.141739
     34 C13        -2.7980    1.6590   -3.3490 c         1 MOL      0.719797
     35 O7         -3.0180    1.2060   -2.1780 o         1 MOL     -0.688545
     36 O8         -2.2280    0.9530   -4.1980 o         1 MOL     -0.688545
     37 H13        -3.3180    3.6100   -0.8590 hn        1 MOL      0.307529
     38 H14        -4.4810    4.7790   -3.2660 h1        1 MOL      0.084935
     39 H15        -2.2180    3.6490   -3.6980 hc        1 MOL      0.031106
     40 H16        -3.6190    3.2900   -4.6910 hc        1 MOL      0.031106
     41 N4         -5.7560    2.6820   -1.3310 n         1 MOL     -0.144248
     42 C14        -7.0290    2.0710   -0.9470 c3        1 MOL     -0.309143
     43 C15        -7.2590    0.6140   -1.2940 c         1 MOL      0.520055
     44 O9         -8.3770    0.1030   -1.1960 o         1 MOL     -0.613350
     45 H17        -5.1780    3.0870   -0.6030 hn        1 MOL      0.174949
     46 H18        -7.8500    2.5470   -1.4880 h1        1 MOL      0.134773
     47 H19        -7.1420    2.2510    0.1240 h1        1 MOL      0.134773
     48 N5         -6.2060   -0.0600   -1.7150 n         1 MOL     -0.008813
     49 C16        -6.4190   -1.3480   -2.4170 c3        1 MOL     -0.186649
     50 C17        -6.6670   -2.6270   -1.5230 c         1 MOL      0.502920
     51 O10        -7.1040   -3.5650   -2.0870 o         1 MOL     -0.539688
     52 C18        -5.1080   -1.5770   -3.2460 c3        1 MOL      0.058481
     53 C19        -3.9540   -2.0900   -2.3920 c         1 MOL      0.469356
     54 N6         -3.0450   -2.7610   -3.0310 n         1 MOL     -0.575312
     55 O11        -3.7940   -1.6960   -1.2400 o         1 MOL     -0.600731
     56 H20        -5.2970    0.3690   -1.7620 hn        1 MOL      0.035081
     57 H21        -7.1510   -1.1970   -3.2090 h1        1 MOL      0.119718
     58 H22        -4.7930   -0.6240   -3.6820 hc        1 MOL      0.020219
     59 H23        -5.3000   -2.2090   -4.1150 hc        1 MOL      0.020219
     60 H24        -3.1840   -3.0600   -3.9850 hn        1 MOL      0.325397
     61 H25        -2.1060   -2.8250   -2.6670 hn        1 MOL      0.325397
     62 N7         -6.3630   -2.5230   -0.2400 n         1 MOL     -0.169938
     63 C20        -6.6430   -3.4890    0.7090 c3        1 MOL     -0.141994
     64 C21        -5.4080   -4.1480    1.3740 c         1 MOL      0.473771
     65 O12        -5.5870   -5.0470    2.1890 o         1 MOL     -0.576094
     66 H26        -5.9490   -1.6600    0.0660 hn        1 MOL      0.188240
     67 H27        -7.1800   -4.3190    0.2540 h1        1 MOL      0.093688
     68 H28        -7.3010   -3.0340    1.4480 h1        1 MOL      0.093688
     69 N8         -4.1480   -3.8730    0.9810 n         1 MOL     -0.358435
     70 C22        -2.9630   -4.6230    1.3530 c3        1 MOL     -0.027011
     71 C23        -1.8390   -3.6190    1.4210 c         1 MOL      0.435156
     72 O13        -1.8730   -2.5040    0.8610 o         1 MOL     -0.482777
     73 C24        -2.7680   -5.8330    0.4020 c3        1 MOL      0.684996
     74 C25        -3.5140   -7.1220    0.6960 c3        1 MOL     -0.710478
     75 O14        -3.2740   -5.5070   -0.8630 oh        1 MOL     -0.622044
     76 H29        -4.1680   -3.1040    0.3380 hn        1 MOL      0.287657
     77 H30        -2.9960   -5.1470    2.3060 h1        1 MOL      0.050114
     78 H31        -1.7150   -6.0880    0.3230 h1        1 MOL     -0.077468
     79 H32        -2.5700   -4.9370   -1.1850 ho        1 MOL      0.333557
     80 H33        -3.6910   -7.2010    1.7650 hc        1 MOL      0.177368
     81 H34        -4.5610   -6.9810    0.4110 hc        1 MOL      0.177368
     82 H35        -3.0550   -7.9730    0.1800 hc        1 MOL      0.177368
     83 N9         -0.7570   -4.0420    2.0820 n         1 MOL     -0.426426
     84 C26         0.4610   -3.2770    2.1000 c3        1 MOL      0.139805
     85 C27         1.3120   -3.3910    0.7800 c         1 MOL      0.446722
     86 O15         1.5680   -4.4950    0.3270 o         1 MOL     -0.576746
     87 C28         1.3770   -3.6130    3.3400 c3        1 MOL      0.043411
     88 C29         0.8910   -2.5580    4.3450 c3        1 MOL      0.006862
     89 C30         2.8410   -3.5050    3.1800 c3        1 MOL     -0.138935
     90 C31         1.4160   -2.7530    5.7770 c3        1 MOL     -0.060142
     91 H36        -0.8040   -5.0070    2.3810 hn        1 MOL      0.241784
     92 H37         0.2710   -2.2010    2.1320 h1        1 MOL     -0.071280
     93 H38         1.1420   -4.5870    3.7500 hc        1 MOL      0.024575
     94 H39        -0.2000   -2.5050    4.3220 hc        1 MOL     -0.003959
     95 H40         1.2800   -1.5870    4.0340 hc        1 MOL     -0.003959
     96 H41         3.3230   -3.6320    4.1460 hc        1 MOL      0.023832
     97 H42         3.1480   -4.2200    2.4130 hc        1 MOL      0.023832
     98 H43         3.0590   -2.5550    2.6800 hc        1 MOL      0.023832
     99 H44         1.2500   -3.7820    6.0790 hc        1 MOL      0.009790
    100 H45         2.4660   -2.4830    5.8370 hc        1 MOL      0.009790
    101 H46         0.9240   -2.1070    6.5040 hc        1 MOL      0.009790
    102 N10         1.7670   -2.3070    0.2430 n         1 MOL     -0.156463
    103 C32         2.5970   -2.2260   -1.0000 c3        1 MOL      0.062753
    104 C33         4.0780   -1.8950   -0.7570 c         1 MOL      0.501430
    105 O16         4.5030   -1.5770    0.3920 o         1 MOL     -0.409304
    106 C34         1.8800   -1.2960   -2.0780 c3        1 MOL     -0.242847
    107 C35         0.4110   -1.6430   -2.2620 c         1 MOL      0.796662
    108 O17        -0.4000   -1.1420   -1.4830 o         1 MOL     -0.712283
    109 O18         0.1090   -2.5070   -3.1370 o         1 MOL     -0.712283
    110 H47         1.5300   -1.4150    0.6590 hn        1 MOL      0.228718
    111 H48         2.6050   -3.2480   -1.3810 h1        1 MOL      0.063865
    112 H49         2.3640   -1.3810   -3.0510 hc        1 MOL      0.041934
    113 H50         2.0400   -0.2450   -1.8420 hc        1 MOL      0.041934
    114 N11         4.8950   -2.0030   -1.8460 n         1 MOL     -0.735558
    115 C36         6.3100   -1.6490   -1.7610 c3        1 MOL      0.608830
    116 C37         6.5680   -0.2350   -1.1520 c         1 MOL      0.291762
    117 O19         7.3900   -0.2250   -0.2140 o         1 MOL     -0.512901
    118 C38         7.0460   -2.0210   -3.0670 c3        1 MOL     -0.189014
    119 C39         8.5390   -1.6620   -2.9740 ca        1 MOL     -0.049094
    120 C40         9.4130   -2.3860   -2.1040 ca        1 MOL     -0.043704
    121 C41         9.0520   -0.4860   -3.5670 ca        1 MOL     -0.043704
    122 C42        10.7340   -2.0280   -1.9880 ca        1 MOL     -0.218048
    123 C43        10.3900   -0.0980   -3.4660 ca        1 MOL     -0.218048
    124 C44        11.1910   -0.8980   -2.6810 ca        1 MOL      0.006606
    125 H51         4.6010   -2.4720   -2.6870 hn        1 MOL      0.341086
    126 H52         6.7590   -2.2920   -1.0060 h1        1 MOL     -0.038884
    127 H53         6.5020   -1.5920   -3.9060 hc        1 MOL      0.050346
    128 H54         7.0070   -3.1090   -3.1320 hc        1 MOL      0.050346
    129 H55         9.0250   -3.2990   -1.6750 ha        1 MOL      0.088568
    130 H56         8.3650    0.1080   -4.1340 ha        1 MOL      0.088568
    131 H57        11.2960   -2.5160   -1.2100 ha        1 MOL      0.138333
    132 H58        10.8150    0.7810   -3.9290 ha        1 MOL      0.138333
    133 H59        12.2420   -0.6750   -2.5290 ha        1 MOL      0.065774
    134 N12         5.9200    0.8880   -1.5830 n         1 MOL     -0.090139
    135 C45         6.2930    2.2030   -1.0990 c3        1 MOL     -0.025024
    136 C46         5.7260    2.4620    0.2860 c         1 MOL      0.292290
    137 O20         6.1450    3.4780    0.8590 o         1 MOL     -0.508120
    138 C47         5.7510    3.1990   -2.0610 c3        1 MOL      0.040664
    139 C48         5.4530    2.4560   -3.3630 c3        1 MOL     -0.259257
    140 C49         5.0610    1.1000   -2.7210 c3        1 MOL     -0.002359
    141 H60         7.3530    2.4400   -1.0850 h1        1 MOL      0.095296
    142 H61         4.8740    3.5750   -1.5290 hc        1 MOL      0.037452
    143 H62         6.3370    4.1110   -2.1640 hc        1 MOL      0.037452
    144 H63         4.5800    2.7500   -3.9470 hc        1 MOL      0.090314
    145 H64         6.3310    2.2740   -3.9710 hc        1 MOL      0.090314
    146 H65         4.0640    1.1710   -2.2900 h1        1 MOL      0.068808
    147 H66         5.0330    0.3150   -3.4690 h1        1 MOL      0.068808
    148 N13         4.8550    1.5650    0.8040 n         1 MOL     -0.030954
    149 C50         4.2240    1.6610    2.1280 c3        1 MOL      0.027911
    150 C51         4.9760    0.8490    3.2210 c         1 MOL      0.384044
    151 O21         5.1190    1.3080    4.3280 o         1 MOL     -0.534165
    152 C52         2.7740    1.2040    1.9330 c3        1 MOL     -0.083110
    153 C53         1.7560    2.0720    1.1140 c3        1 MOL      0.103986
    154 C54         0.4200    1.3800    0.8320 c         1 MOL      0.649120
    155 O22         0.1080    0.4060    1.5490 o         1 MOL     -0.758222
    156 O23        -0.3860    1.8620    0.0150 o         1 MOL     -0.758222
    157 H67         4.7370    0.7150    0.2690 hn        1 MOL      0.044647
    158 H68         4.2430    2.6800    2.5220 h1        1 MOL      0.073832
    159 H69         2.3430    1.2380    2.9400 hc        1 MOL      0.036088
    160 H70         2.8090    0.1930    1.5430 hc        1 MOL      0.036088
    161 H71         2.2260    2.2190    0.1450 hc        1 MOL     -0.015608
    162 H72         1.6550    3.0630    1.5550 hc        1 MOL     -0.015608
    163 N14         5.6320   -0.2030    2.7920 n         1 MOL     -0.070106
    164 C55         6.7910   -0.8820    3.4800 c3        1 MOL     -0.218454
    165 H73         6.4880   -1.1930    4.4800 h1        1 MOL      0.093195
    166 H74         7.0950   -1.7560    2.9040 h1        1 MOL      0.093195
    167 H75         7.6280   -0.1870    3.5540 h1        1 MOL      0.093195
    168 H76         5.2660   -0.6110    1.9460 hn        1 MOL      0.095936
    169 Ca1        -2.2000    0.0830    0.0350 Ca        1 MOL      1.685178
    170 O24        -4.3500   -0.6080    1.5390 oh        1 MOL     -0.750766
    171 H77        -5.0160   -0.0630    1.9600 ho        1 MOL      0.376149
    172 H78        -3.8110   -0.9450    2.2580 ho        1 MOL      0.376149
    173 O25        -1.9710   -0.1240    2.9440 oh        1 MOL     -0.750766
    174 H79        -1.9610    0.0670    3.8820 ho        1 MOL      0.376149
    175 H80        -1.0700    0.0390    2.6580 ho        1 MOL      0.376149
@<TRIPOS>BOND
     1    1    2 1   
     2    1    4 1   
     3    1    5 1   
     4    1    6 1   
     5    2    3 2   
     6    2    7 1   
     7    7    8 1   
     8    7   15 1   
     9    8    9 1   
    10    8   11 1   
    11    8   16 1   
    12    9   10 2   
    13    9   19 1   
    14   11   12 1   
    15   11   17 1   
    16   11   18 1   
    17   12   13 1   
    18   12   14 1   
    19   19   20 1   
    20   19   24 1   
    21   20   21 1   
    22   20   23 1   
    23   20   25 1   
    24   21   22 2   
    25   21   29 1   
    26   23   26 1   
    27   23   27 1   
    28   23   28 1   
    29   29   30 1   
    30   29   37 1   
    31   30   31 1   
    32   30   33 1   
    33   30   38 1   
    34   31   32 2   
    35   31   41 1   
    36   33   34 1   
    37   33   39 1   
    38   33   40 1   
    39   34   35 1   
    40   34   36 1   
    41   41   42 1   
    42   41   45 1   
    43   42   43 1   
    44   42   46 1   
    45   42   47 1   
    46   43   44 2   
    47   43   48 1   
    48   48   49 1   
    49   48   56 1   
    50   49   50 1   
    51   49   52 1   
    52   49   57 1   
    53   50   51 2   
    54   50   62 1   
    55   52   53 1   
    56   52   58 1   
    57   52   59 1   
    58   53   54 1   
    59   53   55 2   
    60   54   60 1   
    61   54   61 1   
    62   62   63 1   
    63   62   66 1   
    64   63   64 1   
    65   63   67 1   
    66   63   68 1   
    67   64   65 2   
    68   64   69 1   
    69   69   70 1   
    70   69   76 1   
    71   70   71 1   
    72   70   73 1   
    73   70   77 1   
    74   71   72 2   
    75   71   83 1   
    76   73   74 1   
    77   73   75 1   
    78   73   78 1   
    79   74   80 1   
    80   74   81 1   
    81   74   82 1   
    82   75   79 1   
    83   83   84 1   
    84   83   91 1   
    85   84   85 1   
    86   84   87 1   
    87   84   92 1   
    88   85   86 2   
    89   85  102 1   
    90   87   88 1   
    91   87   89 1   
    92   87   93 1   
    93   88   90 1   
    94   88   94 1   
    95   88   95 1   
    96   89   96 1   
    97   89   97 1   
    98   89   98 1   
    99   90   99 1   
   100   90  100 1   
   101   90  101 1   
   102  102  103 1   
   103  102  110 1   
   104  103  104 1   
   105  103  106 1   
   106  103  111 1   
   107  104  105 2   
   108  104  114 1   
   109  106  107 1   
   110  106  112 1   
   111  106  113 1   
   112  107  108 1   
   113  107  109 1   
   114  114  115 1   
   115  114  125 1   
   116  115  116 1   
   117  115  118 1   
   118  115  126 1   
   119  116  117 2   
   120  116  134 1   
   121  118  119 1   
   122  118  127 1   
   123  118  128 1   
   124  119  120 ar  
   125  119  121 ar  
   126  120  122 ar  
   127  120  129 1   
   128  121  123 ar  
   129  121  130 1   
   130  122  124 ar  
   131  122  131 1   
   132  123  124 ar  
   133  123  132 1   
   134  124  133 1   
   135  134  135 1   
   136  134  140 1   
   137  135  136 1   
   138  135  138 1   
   139  135  141 1   
   140  136  137 2   
   141  136  148 1   
   142  138  139 1   
   143  138  142 1   
   144  138  143 1   
   145  139  140 1   
   146  139  144 1   
   147  139  145 1   
   148  140  146 1   
   149  140  147 1   
   150  148  149 1   
   151  148  157 1   
   152  149  150 1   
   153  149  152 1   
   154  149  158 1   
   155  150  151 2   
   156  150  163 1   
   157  152  153 1   
   158  152  159 1   
   159  152  160 1   
   160  153  154 1   
   161  153  161 1   
   162  153  162 1   
   163  154  155 1   
   164  154  156 1   
   165  163  164 1   
   166  163  168 1   
   167  164  165 1   
   168  164  166 1   
   169  164  167 1   
   170  170  171 1   
   171  170  172 1   
   172  173  174 1   
   173  173  175 1   
@<TRIPOS>SUBSTRUCTURE
     1 MOL         1 TEMP              0 ****  ****    0 ROOT
