@<TRIPOS>MOLECULE
MOL
  175   173     1     0     0
SMALL
resp


@<TRIPOS>ATOM
      1 C1         -0.5030   -2.8880    6.1030 c3        1 MOL     -0.347231
      2 C2         -0.0370   -3.2710    4.6540 c         1 MOL      0.701862
      3 O1         -0.8980   -3.5420    3.8020 o         1 MOL     -0.536678
      4 H1         -0.1120   -1.9030    6.3610 hc        1 MOL      0.090110
      5 H2         -1.5920   -2.8680    6.1420 hc        1 MOL      0.090110
      6 H3         -0.1260   -3.6240    6.8130 hc        1 MOL      0.090110
      7 N1          1.3380   -3.1830    4.2790 n         1 MOL     -0.686571
      8 C3          1.8140   -3.0690    2.9380 c3        1 MOL      0.162467
      9 C4          1.8060   -4.4490    2.2060 c         1 MOL      0.593392
     10 O2          1.8570   -5.5250    2.8580 o         1 MOL     -0.567097
     11 C5          3.3150   -2.6310    3.0670 c3        1 MOL     -0.482475
     12 C6          4.1280   -2.3190    1.7410 c         1 MOL      0.729882
     13 O3          5.3660   -2.2800    1.7400 o         1 MOL     -0.637233
     14 O4          3.4860   -1.9530    0.7260 o         1 MOL     -0.637233
     15 H4          2.0270   -3.0260    5.0010 hn        1 MOL      0.329777
     16 H5          1.2730   -2.2840    2.4170 h1        1 MOL      0.120851
     17 H6          3.7560   -3.5190    3.5120 hc        1 MOL      0.111428
     18 H7          3.3230   -1.7080    3.6420 hc        1 MOL      0.111428
     19 N2          1.9680   -4.3720    0.8880 n         1 MOL     -0.505199
     20 C7          2.2760   -5.4730   -0.0060 c3        1 MOL      0.204866
     21 C8          3.3820   -5.2580   -1.0310 c         1 MOL      0.528642
     22 O5          3.7320   -6.2100   -1.6670 o         1 MOL     -0.578714
     23 C9          1.0180   -5.9980   -0.6100 c3        1 MOL     -0.100267
     24 H8          1.8470   -3.4970    0.3940 hn        1 MOL      0.327813
     25 H9          2.5840   -6.3230    0.6000 h1        1 MOL      0.014801
     26 H10         1.2810   -6.6040   -1.4750 hc        1 MOL      0.020008
     27 H11         0.4300   -6.6310    0.0630 hc        1 MOL      0.020008
     28 H12         0.3710   -5.1930   -0.9530 hc        1 MOL      0.020008
     29 N3          4.0020   -4.0790   -1.1610 n         1 MOL     -0.411813
     30 C10         4.8520   -3.7630   -2.3770 c3        1 MOL      0.125516
     31 C11         6.1810   -3.0920   -2.1620 c         1 MOL      0.220745
     32 O6          7.0710   -2.9970   -3.0460 o         1 MOL     -0.539007
     33 C12         4.0570   -2.9860   -3.4340 c3        1 MOL     -0.061389
     34 C13         3.2200   -1.9160   -2.7690 c         1 MOL      0.592534
     35 O7          3.7750   -1.0160   -2.1100 o         1 MOL     -0.662567
     36 O8          1.9730   -1.9730   -2.8700 o         1 MOL     -0.662567
     37 H13         3.6610   -3.3270   -0.5720 hn        1 MOL      0.251096
     38 H14         4.9640   -4.7070   -2.9260 h1        1 MOL      0.079779
     39 H15         3.4930   -3.6650   -4.0590 hc        1 MOL      0.024198
     40 H16         4.7410   -2.5020   -4.1280 hc        1 MOL      0.024198
     41 N4          6.3670   -2.4220   -1.0110 n         1 MOL      0.058995
     42 C14         7.3410   -1.4580   -0.6950 c3        1 MOL     -0.335333
     43 C15         7.2680   -0.0870   -1.1620 c         1 MOL      0.673243
     44 O9          8.2220    0.5960   -1.1050 o         1 MOL     -0.650063
     45 H17         5.6460   -2.5980   -0.3300 hn        1 MOL      0.040824
     46 H18         8.2950   -1.8300   -1.0870 h1        1 MOL      0.118431
     47 H19         7.4520   -1.5010    0.3940 h1        1 MOL      0.118431
     48 N5          6.1260    0.4430   -1.6670 n         1 MOL     -0.306544
     49 C16         6.1180    1.7970   -2.2630 c3        1 MOL      0.070869
     50 C17         6.0880    3.0310   -1.2440 c         1 MOL      0.396268
     51 O10         5.9770    4.1640   -1.7020 o         1 MOL     -0.532381
     52 C18         5.0230    1.9070   -3.3760 c3        1 MOL     -0.207279
     53 C19         3.6520    2.2200   -2.7870 c         1 MOL      0.491521
     54 N6          2.7130    2.3990   -3.5970 n         1 MOL     -0.523053
     55 O11         3.4690    2.1870   -1.5620 o         1 MOL     -0.510452
     56 H20         5.3250   -0.1640   -1.7270 hn        1 MOL      0.223170
     57 H21         6.9940    1.9110   -2.8970 h1        1 MOL      0.076581
     58 H22         5.0300    0.8970   -3.7770 hc        1 MOL      0.059482
     59 H23         5.3860    2.6710   -4.0770 hc        1 MOL      0.059482
     60 H24         2.9890    2.2600   -4.5540 hn        1 MOL      0.297231
     61 H25         1.7600    2.3230   -3.2530 hn        1 MOL      0.297231
     62 N7          6.2150    2.7860    0.0520 n         1 MOL     -0.253805
     63 C20         6.3360    3.9030    0.9910 c3        1 MOL     -0.077722
     64 C21         5.0800    4.3760    1.6240 c         1 MOL      0.526458
     65 O12         5.1180    4.9740    2.6620 o         1 MOL     -0.576861
     66 H26         6.2460    1.8230    0.3170 hn        1 MOL      0.218626
     67 H27         6.8090    4.7390    0.4840 h1        1 MOL      0.080074
     68 H28         7.0570    3.7160    1.7880 h1        1 MOL      0.080074
     69 N8          3.8910    4.0880    1.0440 n         1 MOL     -0.338387
     70 C22         2.5140    4.5920    1.1990 c3        1 MOL      0.060959
     71 C23         1.3710    3.5290    1.1740 c         1 MOL      0.400245
     72 O13         1.4470    2.4990    0.4740 o         1 MOL     -0.581554
     73 C24         2.1220    5.6810    0.1490 c3        1 MOL      0.425107
     74 C25         3.1320    6.7990    0.0640 c3        1 MOL     -0.521247
     75 O14         2.1000    5.1650   -1.1470 oh        1 MOL     -0.539096
     76 H29         3.9570    3.5420    0.1930 hn        1 MOL      0.287140
     77 H30         2.5140    5.0930    2.1790 h1        1 MOL      0.036833
     78 H31         1.1610    6.0990    0.4490 h1        1 MOL     -0.041279
     79 H32         1.5340    5.8370   -1.5180 ho        1 MOL      0.360579
     80 H33         3.2550    7.2760    1.0360 hc        1 MOL      0.121383
     81 H34         4.1280    6.4670   -0.2150 hc        1 MOL      0.121383
     82 H35         2.8190    7.4650   -0.7330 hc        1 MOL      0.121383
     83 N9          0.2170    3.8270    1.7980 n         1 MOL     -0.402132
     84 C26        -1.0000    2.9630    1.8980 c3        1 MOL     -0.046025
     85 C27        -1.8010    3.1730    0.5920 c         1 MOL      0.592079
     86 O15        -2.3300    4.2640    0.3890 o         1 MOL     -0.596671
     87 C28        -1.8420    3.1330    3.1860 c3        1 MOL      0.186396
     88 C29        -0.9250    3.5430    4.4200 c3        1 MOL      0.105122
     89 C30        -2.7030    1.9160    3.4520 c3        1 MOL     -0.182839
     90 C31        -1.6290    3.7650    5.7920 c3        1 MOL     -0.274171
     91 H36         0.1550    4.6730    2.3390 hn        1 MOL      0.236582
     92 H37        -0.6750    1.9220    1.9190 h1        1 MOL      0.047336
     93 H38        -2.5960    3.9020    2.9900 hc        1 MOL     -0.040174
     94 H39        -0.4450    4.4790    4.1290 hc        1 MOL     -0.014397
     95 H40        -0.1450    2.7840    4.5050 hc        1 MOL     -0.014397
     96 H41        -2.0660    1.0690    3.7170 hc        1 MOL      0.035641
     97 H42        -3.4600    2.1070    4.2140 hc        1 MOL      0.035641
     98 H43        -3.1920    1.6870    2.5110 hc        1 MOL      0.035641
     99 H44        -1.1120    4.5510    6.3340 hc        1 MOL      0.061477
    100 H45        -2.6520    4.0750    5.5510 hc        1 MOL      0.061477
    101 H46        -1.6070    2.8460    6.3690 hc        1 MOL      0.061477
    102 N10        -1.8980    2.0980   -0.2030 n         1 MOL     -0.316430
    103 C32        -2.8030    2.0650   -1.3480 c3        1 MOL     -0.136719
    104 C33        -4.2000    1.5690   -0.9670 c         1 MOL      0.671649
    105 O16        -4.4820    1.0180    0.1230 o         1 MOL     -0.480735
    106 C34        -2.1190    1.2930   -2.5180 c3        1 MOL     -0.275213
    107 C35        -0.5540    1.3870   -2.4820 c         1 MOL      0.746590
    108 O17         0.1680    0.5690   -1.8380 o         1 MOL     -0.665740
    109 O18        -0.0360    2.0660   -3.3780 o         1 MOL     -0.665740
    110 H47        -1.2090    1.3800   -0.0160 hn        1 MOL      0.344645
    111 H48        -3.0530    3.0680   -1.7040 h1        1 MOL      0.106155
    112 H49        -2.4860    1.5270   -3.5120 hc        1 MOL      0.090398
    113 H50        -2.3930    0.2390   -2.4190 hc        1 MOL      0.090398
    114 N11        -5.1610    1.6990   -1.8810 n         1 MOL     -0.821263
    115 C36        -6.5460    1.2810   -1.6410 c3        1 MOL      0.575751
    116 C37        -6.7740   -0.2390   -1.3480 c         1 MOL      0.315625
    117 O19        -7.3200   -0.5030   -0.2680 o         1 MOL     -0.502883
    118 C38        -7.4560    1.7710   -2.8080 c3        1 MOL     -0.387733
    119 C39        -8.9170    1.4800   -2.3410 ca        1 MOL      0.256543
    120 C40        -9.3330    1.9420   -1.1150 ca        1 MOL     -0.337071
    121 C41        -9.7530    0.6700   -3.1430 ca        1 MOL     -0.337071
    122 C42       -10.6180    1.6140   -0.6020 ca        1 MOL      0.015022
    123 C43       -10.9490    0.2610   -2.5650 ca        1 MOL      0.015022
    124 C44       -11.4000    0.7480   -1.3550 ca        1 MOL     -0.178342
    125 H51        -4.9920    2.3510   -2.6380 hn        1 MOL      0.353738
    126 H52        -6.7840    1.8620   -0.7400 h1        1 MOL      0.017365
    127 H53        -7.2400    1.1590   -3.6900 hc        1 MOL      0.103749
    128 H54        -7.4090    2.8390   -2.9870 hc        1 MOL      0.103749
    129 H55        -8.7060    2.6170   -0.5480 ha        1 MOL      0.154804
    130 H56        -9.4360    0.3820   -4.1370 ha        1 MOL      0.154804
    131 H57       -10.9920    2.1340    0.2650 ha        1 MOL      0.081486
    132 H58       -11.7280   -0.1960   -3.1550 ha        1 MOL      0.081486
    133 H59       -12.4460    0.6120   -1.1040 ha        1 MOL      0.097329
    134 N12        -6.0380   -1.1960   -1.9300 n         1 MOL     -0.101685
    135 C45        -6.0510   -2.6200   -1.4890 c3        1 MOL     -0.012972
    136 C46        -5.5110   -2.8760   -0.1160 c         1 MOL      0.343821
    137 O20        -5.8290   -3.8430    0.4660 o         1 MOL     -0.503947
    138 C47        -5.1880   -3.3570   -2.5570 c3        1 MOL      0.008594
    139 C48        -5.1310   -2.4420   -3.7220 c3        1 MOL      0.048951
    140 C49        -5.3200   -1.0230   -3.2280 c3        1 MOL     -0.073379
    141 H60        -7.0750   -2.9980   -1.5110 h1        1 MOL      0.063407
    142 H61        -4.1570   -3.4000   -2.1910 hc        1 MOL      0.026406
    143 H62        -5.4850   -4.3610   -2.8570 hc        1 MOL      0.026406
    144 H63        -4.2030   -2.5370   -4.2760 hc        1 MOL      0.000326
    145 H64        -5.9570   -2.6650   -4.3950 hc        1 MOL      0.000326
    146 H65        -4.3480   -0.6300   -2.9290 h1        1 MOL      0.045564
    147 H66        -5.8570   -0.4240   -3.9510 h1        1 MOL      0.045564
    148 N13        -4.6210   -2.0210    0.3670 n         1 MOL     -0.152997
    149 C50        -3.9750   -2.0940    1.7170 c3        1 MOL     -0.202005
    150 C51        -4.7960   -1.2860    2.7610 c         1 MOL      0.508858
    151 O21        -4.8520   -1.5990    3.9430 o         1 MOL     -0.575338
    152 C52        -2.4970   -1.6020    1.7030 c3        1 MOL      0.109968
    153 C53        -1.7210   -2.0500    0.4410 c3        1 MOL     -0.120204
    154 C54        -0.3150   -1.4040    0.4840 c         1 MOL      0.376026
    155 O22         0.0050   -0.3430    1.1350 o         1 MOL     -0.608767
    156 O23         0.6630   -1.9210   -0.1150 o         1 MOL     -0.608767
    157 H67        -4.4280   -1.1630   -0.1260 hn        1 MOL      0.229420
    158 H68        -4.0690   -3.1470    1.9930 h1        1 MOL      0.148173
    159 H69        -1.9070   -1.7960    2.5930 hc        1 MOL      0.018808
    160 H70        -2.5680   -0.5270    1.5590 hc        1 MOL      0.018808
    161 H71        -2.2010   -1.7170   -0.4760 hc        1 MOL      0.062246
    162 H72        -1.5710   -3.1260    0.4540 hc        1 MOL      0.062246
    163 N14        -5.6180   -0.2800    2.3530 n         1 MOL     -0.111848
    164 C55        -6.6340    0.3790    3.2320 c3        1 MOL     -0.313984
    165 H73        -6.2250    1.3110    3.6240 h1        1 MOL      0.108124
    166 H74        -7.5330    0.5930    2.6520 h1        1 MOL      0.108124
    167 H75        -6.8840   -0.2840    4.0600 h1        1 MOL      0.108124
    168 H76        -5.3560    0.1760    1.4940 hn        1 MOL      0.145642
    169 Ca1         2.2530    0.0340   -0.3670 Ca        1 MOL      1.669056
    170 O24         2.0330    0.5080    2.3670 oh        1 MOL     -0.774476
    171 H77         2.2260    0.4270    3.3020 ho        1 MOL      0.373972
    172 H78         1.1430    0.1650    2.2740 ho        1 MOL      0.373972
    173 O25         4.6400    0.5450    1.1210 oh        1 MOL     -0.774476
    174 H79         4.6570   -0.3790    1.3550 ho        1 MOL      0.373972
    175 H80         5.2240    0.9620    1.7530 ho        1 MOL      0.373972
@<TRIPOS>BOND
     1    1    2 1   
     2    1    4 1   
     3    1    5 1   
     4    1    6 1   
     5    2    3 2   
     6    2    7 1   
     7    7    8 1   
     8    7   15 1   
     9    8    9 1   
    10    8   11 1   
    11    8   16 1   
    12    9   10 2   
    13    9   19 1   
    14   11   12 1   
    15   11   17 1   
    16   11   18 1   
    17   12   13 1   
    18   12   14 1   
    19   19   20 1   
    20   19   24 1   
    21   20   21 1   
    22   20   23 1   
    23   20   25 1   
    24   21   22 2   
    25   21   29 1   
    26   23   26 1   
    27   23   27 1   
    28   23   28 1   
    29   29   30 1   
    30   29   37 1   
    31   30   31 1   
    32   30   33 1   
    33   30   38 1   
    34   31   32 2   
    35   31   41 1   
    36   33   34 1   
    37   33   39 1   
    38   33   40 1   
    39   34   35 1   
    40   34   36 1   
    41   41   42 1   
    42   41   45 1   
    43   42   43 1   
    44   42   46 1   
    45   42   47 1   
    46   43   44 2   
    47   43   48 1   
    48   48   49 1   
    49   48   56 1   
    50   49   50 1   
    51   49   52 1   
    52   49   57 1   
    53   50   51 2   
    54   50   62 1   
    55   52   53 1   
    56   52   58 1   
    57   52   59 1   
    58   53   54 1   
    59   53   55 2   
    60   54   60 1   
    61   54   61 1   
    62   62   63 1   
    63   62   66 1   
    64   63   64 1   
    65   63   67 1   
    66   63   68 1   
    67   64   65 2   
    68   64   69 1   
    69   69   70 1   
    70   69   76 1   
    71   70   71 1   
    72   70   73 1   
    73   70   77 1   
    74   71   72 2   
    75   71   83 1   
    76   73   74 1   
    77   73   75 1   
    78   73   78 1   
    79   74   80 1   
    80   74   81 1   
    81   74   82 1   
    82   75   79 1   
    83   83   84 1   
    84   83   91 1   
    85   84   85 1   
    86   84   87 1   
    87   84   92 1   
    88   85   86 2   
    89   85  102 1   
    90   87   88 1   
    91   87   89 1   
    92   87   93 1   
    93   88   90 1   
    94   88   94 1   
    95   88   95 1   
    96   89   96 1   
    97   89   97 1   
    98   89   98 1   
    99   90   99 1   
   100   90  100 1   
   101   90  101 1   
   102  102  103 1   
   103  102  110 1   
   104  103  104 1   
   105  103  106 1   
   106  103  111 1   
   107  104  105 2   
   108  104  114 1   
   109  106  107 1   
   110  106  112 1   
   111  106  113 1   
   112  107  108 1   
   113  107  109 1   
   114  114  115 1   
   115  114  125 1   
   116  115  116 1   
   117  115  118 1   
   118  115  126 1   
   119  116  117 2   
   120  116  134 1   
   121  118  119 1   
   122  118  127 1   
   123  118  128 1   
   124  119  120 ar  
   125  119  121 ar  
   126  120  122 ar  
   127  120  129 1   
   128  121  123 ar  
   129  121  130 1   
   130  122  124 ar  
   131  122  131 1   
   132  123  124 ar  
   133  123  132 1   
   134  124  133 1   
   135  134  135 1   
   136  134  140 1   
   137  135  136 1   
   138  135  138 1   
   139  135  141 1   
   140  136  137 2   
   141  136  148 1   
   142  138  139 1   
   143  138  142 1   
   144  138  143 1   
   145  139  140 1   
   146  139  144 1   
   147  139  145 1   
   148  140  146 1   
   149  140  147 1   
   150  148  149 1   
   151  148  157 1   
   152  149  150 1   
   153  149  152 1   
   154  149  158 1   
   155  150  151 2   
   156  150  163 1   
   157  152  153 1   
   158  152  159 1   
   159  152  160 1   
   160  153  154 1   
   161  153  161 1   
   162  153  162 1   
   163  154  155 1   
   164  154  156 1   
   165  163  164 1   
   166  163  168 1   
   167  164  165 1   
   168  164  166 1   
   169  164  167 1   
   170  170  171 1   
   171  170  172 1   
   172  173  174 1   
   173  173  175 1   
@<TRIPOS>SUBSTRUCTURE
     1 MOL         1 TEMP              0 ****  ****    0 ROOT
