@<TRIPOS>MOLECULE
MOL
  186   183     1     0     0
SMALL
resp


@<TRIPOS>ATOM
      1 C1          1.7740   -2.4330    6.3470 c3        1 MOL     -0.437656
      2 C2          1.7780   -2.2590    4.7770 c         1 MOL      0.689313
      3 O1          1.4300   -1.2280    4.1970 o         1 MOL     -0.582722
      4 H1          1.6800   -1.4550    6.8190 hc        1 MOL      0.119660
      5 H2          0.9330   -3.0610    6.6420 hc        1 MOL      0.119660
      6 H3          2.7060   -2.9010    6.6630 hc        1 MOL      0.119660
      7 N1          2.4640   -3.1460    4.1310 n         1 MOL     -0.610314
      8 C3          2.8980   -3.0260    2.7100 c3        1 MOL      0.278948
      9 C4          2.8390   -4.2880    1.8520 c         1 MOL      0.376426
     10 O2          3.1830   -5.3540    2.3470 o         1 MOL     -0.576410
     11 C5          4.3520   -2.3960    2.6920 c3        1 MOL      0.022785
     12 C6          4.9290   -2.2100    1.3160 c         1 MOL      0.568332
     13 O3          4.1570   -1.8050    0.4330 o         1 MOL     -0.633767
     14 O4          6.1020   -2.5310    1.0900 o         1 MOL     -0.633767
     15 H4          2.6390   -3.9690    4.6880 hn        1 MOL      0.313836
     16 H5          2.2500   -2.3350    2.1640 h1        1 MOL     -0.010161
     17 H6          4.9690   -3.1230    3.2220 hc        1 MOL     -0.047080
     18 H7          4.3220   -1.4770    3.2700 hc        1 MOL     -0.047080
     19 N2          2.4090   -4.2690    0.5700 n         1 MOL      0.054760
     20 C7          2.5430   -5.3690   -0.3880 c3        1 MOL     -0.279596
     21 C8          3.4210   -5.1450   -1.6480 c         1 MOL      0.534266
     22 O5          3.6840   -6.0410   -2.4340 o         1 MOL     -0.573972
     23 C9          1.0880   -5.8220   -0.7230 c3        1 MOL      0.411636
     24 C10         0.3510   -4.8240   -1.6090 c3        1 MOL     -0.102840
     25 C11         0.3220   -6.2390    0.5840 c3        1 MOL     -0.271106
     26 C12        -1.1280   -5.1500   -1.8230 c3        1 MOL     -0.155433
     27 H8          1.9420   -3.4180    0.2870 hn        1 MOL      0.110662
     28 H9          2.9160   -6.1980    0.2190 h1        1 MOL      0.100911
     29 H10         1.2260   -6.7470   -1.2920 hc        1 MOL     -0.085188
     30 H11         0.8980   -4.7900   -2.5520 hc        1 MOL      0.040583
     31 H12         0.4770   -3.8720   -1.0940 hc        1 MOL      0.040583
     32 H13        -0.1850   -5.4840    1.1630 hc        1 MOL      0.044154
     33 H14        -0.4420   -6.9220    0.1970 hc        1 MOL      0.044154
     34 H15         0.9560   -6.8590    1.2150 hc        1 MOL      0.044154
     35 H16        -1.5670   -4.5990   -2.6490 hc        1 MOL      0.036122
     36 H17        -1.2120   -6.2310   -1.9520 hc        1 MOL      0.036122
     37 H18        -1.6150   -4.9240   -0.8760 hc        1 MOL      0.036122
     38 N3          3.8440   -3.8990   -1.9350 n         1 MOL     -0.355236
     39 C13         4.4010   -3.5340   -3.2390 c3        1 MOL      0.029510
     40 C14         5.7060   -2.7510   -3.2430 c         1 MOL      0.461075
     41 O6          6.2600   -2.5030   -4.3080 o         1 MOL     -0.570086
     42 C15         3.2690   -2.8540   -4.0010 c3        1 MOL     -0.298155
     43 C16         2.5560   -1.7020   -3.2460 c         1 MOL      0.881024
     44 O7          3.0660   -1.1280   -2.2920 o         1 MOL     -0.754208
     45 O8          1.4970   -1.2740   -3.6840 o         1 MOL     -0.754208
     46 H19         3.5920   -3.1380   -1.3180 hn        1 MOL      0.184199
     47 H20         4.6440   -4.4600   -3.7690 h1        1 MOL      0.107712
     48 H21         2.5090   -3.5840   -4.2790 hc        1 MOL      0.077304
     49 H22         3.6180   -2.3390   -4.9020 hc        1 MOL      0.077304
     50 N4          6.1910   -2.4460   -2.0620 n         1 MOL     -0.280080
     51 C17         7.5250   -1.8140   -1.7250 c3        1 MOL      0.007892
     52 C18         7.6350   -0.3780   -2.0620 c         1 MOL      0.418363
     53 O9          8.7840    0.1250   -2.1990 o         1 MOL     -0.591670
     54 H23         5.5710   -2.5840   -1.2770 hn        1 MOL      0.180240
     55 H24         8.2670   -2.3750   -2.3030 h1        1 MOL      0.066969
     56 H25         7.8260   -1.9650   -0.6910 h1        1 MOL      0.066969
     57 N5          6.5290    0.3360   -2.1620 n         1 MOL     -0.080155
     58 C19         6.5100    1.6300   -2.8060 c3        1 MOL     -0.031621
     59 C20         6.7970    2.8880   -1.8930 c         1 MOL      0.395114
     60 O10         7.2570    3.9060   -2.4500 o         1 MOL     -0.538164
     61 C21         5.1030    1.8150   -3.5110 c3        1 MOL     -0.284821
     62 C22         3.8450    1.8250   -2.5600 c         1 MOL      0.772775
     63 O11         4.0050    1.6380   -1.3360 o         1 MOL     -0.717934
     64 O12         2.6820    1.9490   -3.0660 o         1 MOL     -0.717934
     65 H26         5.6650    0.0940   -1.7020 hn        1 MOL      0.095710
     66 H27         7.2050    1.6590   -3.6510 h1        1 MOL      0.109183
     67 H28         5.0590    1.0310   -4.2700 hc        1 MOL      0.095598
     68 H29         5.2300    2.7660   -4.0230 hc        1 MOL      0.095598
     69 N6          6.5420    2.8250   -0.5990 n         1 MOL     -0.248092
     70 C23         6.7190    3.9060    0.3430 c3        1 MOL     -0.138729
     71 C24         5.4970    4.5680    0.9860 c         1 MOL      0.487176
     72 O13         5.7360    5.4430    1.7950 o         1 MOL     -0.564636
     73 H30         6.2020    1.9760   -0.1650 hn        1 MOL      0.224269
     74 H31         7.2120    4.7220   -0.1750 h1        1 MOL      0.096269
     75 H32         7.3820    3.5310    1.1360 h1        1 MOL      0.096269
     76 N7          4.2960    4.1850    0.4980 n         1 MOL     -0.199732
     77 C25         3.0500    4.5800    1.1450 c3        1 MOL     -0.199988
     78 C26         2.1250    3.4190    1.6100 c         1 MOL      0.770416
     79 O14         1.9880    2.5080    0.8300 o         1 MOL     -0.652576
     80 C27         2.2150    5.4810    0.1860 c3        1 MOL      0.168719
     81 C28         2.8780    6.8120   -0.2560 c3        1 MOL     -0.377092
     82 C29         1.8930    7.7540   -0.9420 c         1 MOL      0.667737
     83 N8          1.3990    7.5210   -2.1560 n         1 MOL     -0.821931
     84 O15         1.4780    8.7510   -0.3260 o         1 MOL     -0.578120
     85 H33         4.3010    3.3670   -0.0870 hn        1 MOL      0.203227
     86 H34         3.3070    5.1970    2.0030 h1        1 MOL      0.078452
     87 H35         1.2910    5.6660    0.7290 hc        1 MOL      0.019609
     88 H36         1.9130    4.9400   -0.7110 hc        1 MOL      0.019609
     89 H37         3.6990    6.5580   -0.9210 hc        1 MOL      0.118259
     90 H38         3.2560    7.3260    0.6290 hc        1 MOL      0.118259
     91 H39         1.8030    6.7820   -2.7050 hn        1 MOL      0.376926
     92 H40         0.6630    8.0780   -2.5630 hn        1 MOL      0.376926
     93 N9          1.4930    3.4030    2.7280 n         1 MOL     -0.665107
     94 C30         0.4030    2.4770    3.1190 c3        1 MOL     -0.002963
     95 C31        -0.9050    2.9650    2.4310 c         1 MOL      0.361388
     96 O16        -1.1400    4.2320    2.3540 o         1 MOL     -0.551819
     97 C32         0.2340    2.4010    4.6490 c3        1 MOL      0.179786
     98 C33        -0.7010    1.3090    5.0720 c3        1 MOL     -0.216776
     99 C34         1.5700    2.1820    5.4800 c3        1 MOL     -0.216776
    100 H41         1.6640    4.1070    3.4430 hn        1 MOL      0.337918
    101 H42         0.6220    1.4560    2.8240 h1        1 MOL      0.355832
    102 H43        -0.0900    3.3930    4.9680 hc        1 MOL     -0.013897
    103 H44        -1.7120    1.4520    4.6980 hc        1 MOL      0.035642
    104 H45        -0.3440    0.3930    4.5970 hc        1 MOL      0.035642
    105 H46        -0.6430    1.1930    6.1500 hc        1 MOL      0.035642
    106 H47         2.3150    2.9430    5.2300 hc        1 MOL      0.035642
    107 H48         1.2840    2.2740    6.5370 hc        1 MOL      0.035642
    108 H49         2.0100    1.2200    5.2300 hc        1 MOL      0.035642
    109 N10        -1.6530    2.0340    1.8460 n         1 MOL     -0.028815
    110 C35        -2.8820    2.3720    1.1530 c3        1 MOL     -0.025288
    111 C36        -4.1470    1.5770    1.6530 c         1 MOL      0.436589
    112 O17        -4.0570    0.6210    2.4240 o         1 MOL     -0.429192
    113 C37        -2.4940    2.1420   -0.3610 c3        1 MOL     -0.086959
    114 C38        -3.0940    0.8410   -0.9640 c         1 MOL      0.271410
    115 N11        -2.2750   -0.0540   -1.5190 n         1 MOL     -0.529681
    116 O18        -4.2830    0.6470   -1.1850 o         1 MOL     -0.373847
    117 H50        -1.2610    1.1040    1.7200 hn        1 MOL      0.038987
    118 H51        -3.0130    3.4330    1.3400 h1        1 MOL      0.046179
    119 H52        -1.4360    2.1790   -0.5800 hc        1 MOL      0.097255
    120 H53        -2.7990    3.0400   -0.8930 hc        1 MOL      0.097255
    121 H54        -1.2790    0.0830   -1.6350 hn        1 MOL      0.329663
    122 H55        -2.8130   -0.7320   -2.0340 hn        1 MOL      0.329663
    123 N12        -5.3440    2.0310    1.1830 n         1 MOL     -0.437900
    124 C39        -6.6490    1.5340    1.4990 c3        1 MOL      0.028220
    125 C40        -7.0910    0.1320    1.0440 c         1 MOL      0.494619
    126 O19        -7.5450   -0.6600    1.8670 o         1 MOL     -0.589878
    127 C41        -7.6800    2.6120    1.0290 c3        1 MOL      0.048532
    128 C42        -7.9820    2.6550   -0.4370 ca        1 MOL      0.123901
    129 C43        -9.3090    2.5160   -0.8580 ca        1 MOL     -0.291570
    130 C44        -6.9530    2.7250   -1.4140 ca        1 MOL     -0.291570
    131 C45        -9.6350    2.3630   -2.2360 ca        1 MOL     -0.189940
    132 C46        -7.2890    2.7600   -2.8090 ca        1 MOL     -0.189940
    133 C47        -8.6200    2.6340   -3.2120 ca        1 MOL      0.249342
    134 O20        -9.0070    2.7330   -4.5250 oh        1 MOL     -0.435074
    135 H56        -5.2090    2.7720    0.5040 hn        1 MOL      0.284315
    136 H57        -6.7010    1.4790    2.5820 h1        1 MOL      0.066129
    137 H58        -7.3770    3.6060    1.3470 hc        1 MOL     -0.003816
    138 H59        -8.5820    2.4710    1.6200 hc        1 MOL     -0.003816
    139 H60       -10.1660    2.4010   -0.2070 ha        1 MOL      0.137467
    140 H61        -5.9160    2.7520   -1.1080 ha        1 MOL      0.137467
    141 H62       -10.6610    2.3830   -2.5800 ha        1 MOL      0.150110
    142 H63        -6.5770    2.9010   -3.6070 ha        1 MOL      0.150110
    143 H64        -9.9580    2.6030   -4.6190 ho        1 MOL      0.339110
    144 N13        -6.7200   -0.3000   -0.1490 n         1 MOL     -0.267692
    145 C48        -6.9180   -1.7400   -0.5190 c3        1 MOL     -0.095203
    146 C49        -5.7940   -2.6550   -0.0500 c         1 MOL      0.353492
    147 O21        -6.0470   -3.8270    0.0940 o         1 MOL     -0.501079
    148 C50        -7.0970   -1.8710   -2.0410 c3        1 MOL      0.064508
    149 C51        -8.3480   -1.1000   -2.5200 c3        1 MOL     -0.181072
    150 C52        -8.6770   -1.3380   -3.9560 c         1 MOL      0.691870
    151 O22        -9.6240   -2.1220   -4.2850 o         1 MOL     -0.735917
    152 O23        -7.9440   -0.7940   -4.8640 o         1 MOL     -0.735917
    153 H65        -6.1360    0.3190   -0.6810 hn        1 MOL      0.305294
    154 H66        -7.7560   -2.1560    0.0240 h1        1 MOL      0.152713
    155 H67        -7.3040   -2.9030   -2.3180 hc        1 MOL      0.024255
    156 H68        -6.1980   -1.5150   -2.5410 hc        1 MOL      0.024255
    157 H69        -8.0760   -0.0490   -2.4170 hc        1 MOL      0.010983
    158 H70        -9.1510   -1.3840   -1.8440 hc        1 MOL      0.010983
    159 N14        -4.6010   -2.0590    0.3170 n         1 MOL     -0.113905
    160 C53        -3.5940   -2.7500    1.1630 c3        1 MOL     -0.244557
    161 C54        -3.8360   -2.8430    2.6870 c         1 MOL      0.532166
    162 O24        -3.3520   -3.8050    3.3630 o         1 MOL     -0.577452
    163 C55        -2.3210   -1.9230    0.9480 c3        1 MOL      0.194303
    164 C56        -1.1260   -2.2050    1.8190 c3        1 MOL     -0.258512
    165 C57         0.0660   -1.4340    1.1980 c         1 MOL      0.804182
    166 O25         0.1350   -0.1970    1.3970 o         1 MOL     -0.776177
    167 O26         0.8680   -2.0010    0.4130 o         1 MOL     -0.776177
    168 H71        -4.5230   -1.0780    0.0870 hn        1 MOL     -0.001135
    169 H72        -3.4480   -3.7280    0.7260 h1        1 MOL      0.128315
    170 H73        -2.5610   -0.8620    0.9480 hc        1 MOL      0.026341
    171 H74        -2.0660   -2.1280   -0.0900 hc        1 MOL      0.026341
    172 H75        -0.6950   -3.2110    1.8490 hc        1 MOL      0.063582
    173 H76        -1.2560   -1.8480    2.8440 hc        1 MOL      0.063582
    174 N15        -4.6890   -1.9490    3.1940 n         1 MOL     -0.148352
    175 C58        -4.9320   -1.9180    4.6150 c3        1 MOL     -0.275207
    176 H77        -4.5940   -0.9640    5.0210 h1        1 MOL      0.090201
    177 H78        -5.9990   -2.0350    4.8050 h1        1 MOL      0.090201
    178 H79        -4.3860   -2.7300    5.0950 h1        1 MOL      0.090201
    179 H80        -5.0910   -1.1550    2.7090 hn        1 MOL      0.262307
    180 Ca1         2.4510   -0.0030   -0.0180 Ca        1 MOL      1.719129
    181 O27         3.0640    0.4470    2.4970 oh        1 MOL     -1.000999
    182 H81         2.4820   -0.1370    2.9750 ho        1 MOL      0.486356
    183 H82         3.7940    0.6180    3.0950 ho        1 MOL      0.486356
    184 O28         0.7980    0.6530   -2.0380 oh        1 MOL     -1.000999
    185 H83         0.9630   -0.1020   -2.6130 ho        1 MOL      0.486356
    186 H84         1.3720    1.3400   -2.3780 ho        1 MOL      0.486356
@<TRIPOS>BOND
     1    1    2 1   
     2    1    4 1   
     3    1    5 1   
     4    1    6 1   
     5    2    3 2   
     6    2    7 1   
     7    7    8 1   
     8    7   15 1   
     9    8    9 1   
    10    8   11 1   
    11    8   16 1   
    12    9   10 2   
    13    9   19 1   
    14   11   12 1   
    15   11   17 1   
    16   11   18 1   
    17   12   13 1   
    18   12   14 1   
    19   19   20 1   
    20   19   27 1   
    21   20   21 1   
    22   20   23 1   
    23   20   28 1   
    24   21   22 2   
    25   21   38 1   
    26   23   24 1   
    27   23   25 1   
    28   23   29 1   
    29   24   26 1   
    30   24   30 1   
    31   24   31 1   
    32   25   32 1   
    33   25   33 1   
    34   25   34 1   
    35   26   35 1   
    36   26   36 1   
    37   26   37 1   
    38   38   39 1   
    39   38   46 1   
    40   39   40 1   
    41   39   42 1   
    42   39   47 1   
    43   40   41 2   
    44   40   50 1   
    45   42   43 1   
    46   42   48 1   
    47   42   49 1   
    48   43   44 1   
    49   43   45 1   
    50   50   51 1   
    51   50   54 1   
    52   51   52 1   
    53   51   55 1   
    54   51   56 1   
    55   52   53 2   
    56   52   57 1   
    57   57   58 1   
    58   57   65 1   
    59   58   59 1   
    60   58   61 1   
    61   58   66 1   
    62   59   60 2   
    63   59   69 1   
    64   61   62 1   
    65   61   67 1   
    66   61   68 1   
    67   62   63 1   
    68   62   64 1   
    69   69   70 1   
    70   69   73 1   
    71   70   71 1   
    72   70   74 1   
    73   70   75 1   
    74   71   72 2   
    75   71   76 1   
    76   76   77 1   
    77   76   85 1   
    78   77   78 1   
    79   77   80 1   
    80   77   86 1   
    81   78   79 2   
    82   78   93 1   
    83   80   81 1   
    84   80   87 1   
    85   80   88 1   
    86   81   82 1   
    87   81   89 1   
    88   81   90 1   
    89   82   83 1   
    90   82   84 2   
    91   83   91 1   
    92   83   92 1   
    93   93   94 1   
    94   93  100 1   
    95   94   95 1   
    96   94   97 1   
    97   94  101 1   
    98   95   96 2   
    99   95  109 1   
   100   97   98 1   
   101   97   99 1   
   102   97  102 1   
   103   98  103 1   
   104   98  104 1   
   105   98  105 1   
   106   99  106 1   
   107   99  107 1   
   108   99  108 1   
   109  109  110 1   
   110  109  117 1   
   111  110  111 1   
   112  110  113 1   
   113  110  118 1   
   114  111  112 2   
   115  111  123 1   
   116  113  114 1   
   117  113  119 1   
   118  113  120 1   
   119  114  115 1   
   120  114  116 2   
   121  115  121 1   
   122  115  122 1   
   123  123  124 1   
   124  123  135 1   
   125  124  125 1   
   126  124  127 1   
   127  124  136 1   
   128  125  126 2   
   129  125  144 1   
   130  127  128 1   
   131  127  137 1   
   132  127  138 1   
   133  128  129 ar  
   134  128  130 ar  
   135  129  131 ar  
   136  129  139 1   
   137  130  132 ar  
   138  130  140 1   
   139  131  133 ar  
   140  131  141 1   
   141  132  133 ar  
   142  132  142 1   
   143  133  134 1   
   144  134  143 1   
   145  144  145 1   
   146  144  153 1   
   147  145  146 1   
   148  145  148 1   
   149  145  154 1   
   150  146  147 2   
   151  146  159 1   
   152  148  149 1   
   153  148  155 1   
   154  148  156 1   
   155  149  150 1   
   156  149  157 1   
   157  149  158 1   
   158  150  151 1   
   159  150  152 1   
   160  159  160 1   
   161  159  168 1   
   162  160  161 1   
   163  160  163 1   
   164  160  169 1   
   165  161  162 2   
   166  161  174 1   
   167  163  164 1   
   168  163  170 1   
   169  163  171 1   
   170  164  165 1   
   171  164  172 1   
   172  164  173 1   
   173  165  166 1   
   174  165  167 1   
   175  174  175 1   
   176  174  179 1   
   177  175  176 1   
   178  175  177 1   
   179  175  178 1   
   180  181  182 1   
   181  181  183 1   
   182  184  185 1   
   183  184  186 1   
@<TRIPOS>SUBSTRUCTURE
     1 MOL         1 TEMP              0 ****  ****    0 ROOT
