@<TRIPOS>MOLECULE
MOL
  189   185     1     0     0
SMALL
resp


@<TRIPOS>ATOM
      1 C1         -0.9600    3.1370    5.9470 c3        1 MOL     -0.245547
      2 C2         -0.9620    2.5290    4.5620 c         1 MOL      0.687518
      3 O1         -0.0030    2.8470    3.8120 o         1 MOL     -0.588711
      4 H1          0.0620    3.3910    6.2300 hc        1 MOL      0.064213
      5 H2         -1.5730    4.0390    5.9490 hc        1 MOL      0.064213
      6 H3         -1.3660    2.4190    6.6600 hc        1 MOL      0.064213
      7 N1         -2.0350    1.8720    4.0890 n         1 MOL     -0.716719
      8 C3         -2.2580    1.5710    2.6920 c3        1 MOL      0.242145
      9 C4         -2.4440    2.9110    1.9630 c         1 MOL      0.530749
     10 O2         -3.2980    3.7310    2.3810 o         1 MOL     -0.563146
     11 C5         -3.4940    0.6390    2.6210 c3        1 MOL     -0.324137
     12 C6         -3.9680    0.3610    1.2020 c         1 MOL      0.891045
     13 O3         -3.2350    0.6440    0.2390 o         1 MOL     -0.717729
     14 O4         -5.1380   -0.1390    1.0500 o         1 MOL     -0.717729
     15 H4         -2.7990    1.7240    4.7220 hn        1 MOL      0.378277
     16 H5         -1.4380    1.0430    2.2050 h1        1 MOL      0.031269
     17 H6         -4.2970    1.1750    3.1190 hc        1 MOL      0.070949
     18 H7         -3.2880   -0.3180    3.0800 hc        1 MOL      0.070949
     19 N2         -1.6930    3.1620    0.8600 n         1 MOL     -0.360190
     20 C7         -1.6490    4.4830    0.1450 c3        1 MOL     -0.012890
     21 C8         -2.5110    4.5580   -1.0570 c         1 MOL      0.419177
     22 O5         -2.8080    5.7310   -1.4070 o         1 MOL     -0.604030
     23 C9         -0.2040    4.8370   -0.2740 c3        1 MOL     -0.084530
     24 C10         0.7610    4.9900    0.9300 c3        1 MOL      0.013094
     25 C11         0.5690    6.2130    1.8740 c3        1 MOL     -0.250190
     26 C12        -0.3740    5.8650    2.9290 c3        1 MOL      0.509333
     27 N3         -0.5400    7.0030    3.8260 n4        1 MOL     -0.662701
     28 H8         -1.2910    2.3600    0.3870 hn        1 MOL      0.155909
     29 H9         -2.0120    5.2850    0.7830 h1        1 MOL      0.081784
     30 H10        -0.1410    5.7600   -0.8480 hc        1 MOL      0.057530
     31 H11         0.1900    4.0390   -0.9000 hc        1 MOL      0.057530
     32 H12         1.7530    4.9230    0.4990 hc        1 MOL      0.045651
     33 H13         0.7670    4.1440    1.6260 hc        1 MOL      0.045651
     34 H14         0.0940    7.0120    1.3020 hc        1 MOL      0.052240
     35 H15         1.4960    6.4420    2.3980 hc        1 MOL      0.052240
     36 H16         0.1180    5.0510    3.4670 hx        1 MOL     -0.021954
     37 H17        -1.3240    5.4720    2.5710 hx        1 MOL     -0.021954
     38 H18        -0.9440    6.6640    4.6940 hn        1 MOL      0.377630
     39 H19         0.3460    7.4340    4.0180 hn        1 MOL      0.377630
     40 H20        -1.2190    7.6230    3.4090 hn        1 MOL      0.377630
     41 N4         -3.0330    3.5220   -1.6290 n         1 MOL     -0.030578
     42 C13        -4.0410    3.5190   -2.7200 c3        1 MOL     -0.010792
     43 C14        -5.3630    2.8570   -2.3160 c         1 MOL      0.442874
     44 O6         -6.2490    2.7820   -3.1440 o         1 MOL     -0.487406
     45 C15        -3.5650    3.0380   -4.1180 c3        1 MOL     -0.201269
     46 C16        -2.7380    1.8010   -4.0810 c         1 MOL      0.788482
     47 O7         -2.1930    1.3920   -5.1360 o         1 MOL     -0.717051
     48 O8         -2.6250    1.1550   -3.0040 o         1 MOL     -0.717051
     49 H21        -2.8420    2.5930   -1.2860 hn        1 MOL      0.024966
     50 H22        -4.2670    4.5740   -2.8720 h1        1 MOL      0.087009
     51 H23        -2.8690    3.8000   -4.4570 hc        1 MOL      0.057773
     52 H24        -4.3930    2.8770   -4.8050 hc        1 MOL      0.057773
     53 N5         -5.5030    2.4990   -1.0410 n         1 MOL     -0.386659
     54 C17        -6.7780    2.0400   -0.4710 c3        1 MOL      0.035691
     55 C18        -7.3160    0.8280   -1.2400 c         1 MOL      0.447383
     56 O9         -8.5560    0.7470   -1.3430 o         1 MOL     -0.573152
     57 H25        -4.7450    2.6190   -0.3810 hn        1 MOL      0.255121
     58 H26        -7.5170    2.8370   -0.4150 h1        1 MOL      0.051663
     59 H27        -6.5050    1.6940    0.5330 h1        1 MOL      0.051663
     60 N6         -6.4530   -0.1130   -1.6580 n         1 MOL     -0.182704
     61 C19        -6.8550   -1.3690   -2.2810 c3        1 MOL      0.081595
     62 C20        -7.0510   -2.4920   -1.2740 c         1 MOL      0.318000
     63 O10        -7.6640   -3.5210   -1.5990 o         1 MOL     -0.542776
     64 C21        -5.8590   -1.7440   -3.4120 c3        1 MOL     -0.494571
     65 C22        -4.4310   -1.8240   -2.7820 c         1 MOL      0.873340
     66 O11        -3.4290   -1.6150   -3.4930 o         1 MOL     -0.725398
     67 O12        -4.1280   -2.0980   -1.6000 o         1 MOL     -0.725398
     68 H28        -5.4790    0.0350   -1.4250 hn        1 MOL      0.161832
     69 H29        -7.8070   -1.2290   -2.7770 h1        1 MOL      0.105157
     70 H30        -5.9830   -0.9230   -4.1290 hc        1 MOL      0.156986
     71 H31        -6.2040   -2.7160   -3.7590 hc        1 MOL      0.156986
     72 N7         -6.5640   -2.3390   -0.0230 n         1 MOL     -0.033884
     73 C23        -6.7880   -3.2080    1.1430 c3        1 MOL     -0.245376
     74 C24        -5.5010   -3.8190    1.6820 c         1 MOL      0.597159
     75 O13        -5.6100   -4.4910    2.7030 o         1 MOL     -0.580491
     76 H32        -6.1780   -1.4230    0.1590 hn        1 MOL      0.155516
     77 H33        -7.5100   -3.9580    0.8180 h1        1 MOL      0.114515
     78 H34        -7.2360   -2.5790    1.9250 h1        1 MOL      0.114515
     79 N8         -4.3150   -3.5430    1.0990 n         1 MOL     -0.322473
     80 C25        -2.9470   -4.1190    1.4180 c3        1 MOL     -0.025440
     81 C26        -1.7560   -3.1380    1.4220 c         1 MOL      0.683497
     82 O14        -1.8420   -2.0610    0.7780 o         1 MOL     -0.675207
     83 C27        -2.6330   -5.3010    0.4330 c3        1 MOL      0.354519
     84 C28        -3.3100   -6.5600    0.8630 c3        1 MOL     -0.470319
     85 O15        -3.0470   -4.9500   -0.8600 oh        1 MOL     -0.584733
     86 H35        -4.4280   -2.9810    0.2700 hn        1 MOL      0.193591
     87 H36        -3.0040   -4.4830    2.4400 h1        1 MOL      0.040589
     88 H37        -1.5510   -5.4320    0.4620 h1        1 MOL      0.025757
     89 H38        -4.0000   -4.8620   -0.7510 ho        1 MOL      0.405987
     90 H39        -4.3360   -6.4040    1.1880 hc        1 MOL      0.121777
     91 H40        -3.2480   -7.2480    0.0110 hc        1 MOL      0.121777
     92 H41        -2.6450   -6.9640    1.6300 hc        1 MOL      0.121777
     93 N9         -0.6330   -3.4540    2.0050 n         1 MOL     -0.594493
     94 C29         0.5660   -2.5560    2.2320 c3        1 MOL      0.079705
     95 C30         1.6870   -3.2510    1.4830 c         1 MOL      0.467246
     96 O16         2.0340   -4.3540    1.8270 o         1 MOL     -0.551061
     97 C31         0.9410   -2.4140    3.6780 c3        1 MOL      0.121425
     98 C32        -0.2540   -1.8500    4.5010 c3        1 MOL     -0.031428
     99 C33         2.0800   -1.4200    3.9170 c3        1 MOL     -0.295539
    100 C34        -0.2170   -2.1360    5.9130 c3        1 MOL     -0.266687
    101 H42        -0.6010   -4.3510    2.4620 hn        1 MOL      0.298944
    102 H43         0.3450   -1.5750    1.8060 h1        1 MOL      0.077824
    103 H44         1.1750   -3.3790    4.1360 hc        1 MOL      0.028777
    104 H45        -1.2250   -2.1590    4.1110 hc        1 MOL      0.066838
    105 H46        -0.3710   -0.7780    4.3660 hc        1 MOL      0.066838
    106 H47         1.8720   -0.3770    3.6570 hc        1 MOL      0.064631
    107 H48         2.5000   -1.4640    4.9220 hc        1 MOL      0.064631
    108 H49         2.8550   -1.8430    3.2910 hc        1 MOL      0.064631
    109 H50        -0.1460   -3.2130    5.9800 hc        1 MOL      0.066105
    110 H51         0.6870   -1.6800    6.3390 hc        1 MOL      0.066105
    111 H52        -1.0680   -1.8230    6.5280 hc        1 MOL      0.066105
    112 N10         2.2940   -2.5400    0.4990 n         1 MOL     -0.050472
    113 C35         3.4630   -3.0200   -0.2770 c3        1 MOL     -0.074989
    114 C36         4.8070   -2.5030    0.3240 c         1 MOL      0.279932
    115 O17         4.8630   -1.5820    1.1310 o         1 MOL     -0.219004
    116 C37         3.3860   -2.4120   -1.7340 c3        1 MOL      0.102112
    117 C38         2.1950   -3.0810   -2.5370 c3        1 MOL     -0.163869
    118 O18         3.2100   -1.0220   -1.6290 oh        1 MOL     -0.508173
    119 H53         1.8550   -1.6610    0.2620 hn        1 MOL      0.065013
    120 H54         3.5150   -4.1050   -0.3810 h1        1 MOL      0.092390
    121 H55         4.3040   -2.5230   -2.3240 h1        1 MOL      0.055850
    122 H56         2.2830   -0.9020   -1.4130 ho        1 MOL      0.389733
    123 H57         2.5110   -4.0860   -2.8220 hc        1 MOL      0.054284
    124 H58         1.2980   -3.0530   -1.9140 hc        1 MOL      0.054284
    125 H59         2.0600   -2.5680   -3.4920 hc        1 MOL      0.054284
    126 N11         5.9370   -3.0820   -0.1030 n         1 MOL     -0.238516
    127 C39         7.2250   -2.5940    0.2910 c3        1 MOL     -0.171961
    128 C40         7.3570   -1.1600   -0.0720 c         1 MOL      0.364840
    129 O19         8.0710   -0.4080    0.6920 o         1 MOL     -0.493128
    130 C41         8.4210   -3.2630   -0.3610 c3        1 MOL      0.449990
    131 C42         8.4880   -4.7950   -0.0720 c3        1 MOL     -0.474833
    132 O20         8.5440   -2.9600   -1.7390 oh        1 MOL     -0.657717
    133 H60         5.9350   -3.9810   -0.5700 hn        1 MOL      0.239228
    134 H61         7.3640   -2.7440    1.3600 h1        1 MOL      0.134659
    135 H62         9.2900   -2.8040    0.1180 h1        1 MOL      0.007015
    136 H63         9.3820   -3.3330   -2.0310 ho        1 MOL      0.405160
    137 H64         7.5550   -5.2830   -0.3640 hc        1 MOL      0.127593
    138 H65         9.1630   -5.3310   -0.7420 hc        1 MOL      0.127593
    139 H66         8.6820   -5.0090    0.9790 hc        1 MOL      0.127593
    140 N12         6.7390   -0.7050   -1.1980 n         1 MOL     -0.224120
    141 C43         6.7070    0.6960   -1.5750 c3        1 MOL     -0.051754
    142 C44         5.9820    1.5530   -0.4820 c         1 MOL      0.303442
    143 O21         6.4010    2.6470   -0.1210 o         1 MOL     -0.473097
    144 C45         6.2080    0.7160   -3.0720 c3        1 MOL     -0.115262
    145 C46         6.2560    2.1710   -3.6070 c3        1 MOL     -0.132805
    146 C47         7.5970    2.9270   -3.4370 c3        1 MOL     -0.085262
    147 C48         8.8200    2.1310   -3.8120 c3        1 MOL      0.032805
    148 N13         8.9040    1.6190   -5.2270 n4        1 MOL     -0.291441
    149 H67         6.1540   -1.3800   -1.6560 hn        1 MOL      0.223290
    150 H68         7.7700    0.9380   -1.6570 h1        1 MOL      0.113748
    151 H69         5.1370    0.5010   -3.0980 hc        1 MOL      0.065884
    152 H70         6.7000   -0.0230   -3.6990 hc        1 MOL      0.065884
    153 H71         5.5040    2.8080   -3.1600 hc        1 MOL      0.075855
    154 H72         5.9160    2.1840   -4.6410 hc        1 MOL      0.075855
    155 H73         7.6900    3.2540   -2.4000 hc        1 MOL      0.077243
    156 H74         7.6440    3.7990   -4.1000 hc        1 MOL      0.077243
    157 H75         8.9280    1.2630   -3.1700 hx        1 MOL      0.077129
    158 H76         9.6940    2.7800   -3.7010 hx        1 MOL      0.077129
    159 H77         8.9830    2.3050   -5.9500 hn        1 MOL      0.282828
    160 H78         9.6790    0.9690   -5.2570 hn        1 MOL      0.282828
    161 H79         8.0770    1.0620   -5.3870 hn        1 MOL      0.282828
    162 N14         4.9280    0.9900    0.0940 n         1 MOL      0.240297
    163 C49         4.0620    1.7210    1.0100 c3        1 MOL     -0.279729
    164 C50         4.5260    1.7090    2.5000 c         1 MOL      0.462228
    165 O22         4.5980    2.7430    3.1470 o         1 MOL     -0.537485
    166 C51         2.6260    1.2260    0.7910 c3        1 MOL      0.104494
    167 C52         1.9820    1.6270   -0.5610 c3        1 MOL     -0.133625
    168 C53         0.6970    0.8360   -0.7200 c         1 MOL      0.614101
    169 O23        -0.3550    1.4290   -0.8800 o         1 MOL     -0.599859
    170 O24         0.7450   -0.4180   -0.7380 o         1 MOL     -0.599859
    171 H80         4.7140    0.0400   -0.1890 hn        1 MOL     -0.154535
    172 H81         4.0120    2.7110    0.5600 h1        1 MOL      0.105182
    173 H82         1.8780    1.5600    1.5160 hc        1 MOL      0.022868
    174 H83         2.6260    0.1360    0.7730 hc        1 MOL      0.022868
    175 H84         2.6650    1.3240   -1.3620 hc        1 MOL      0.041826
    176 H85         1.8530    2.7020   -0.5800 hc        1 MOL      0.041826
    177 N15         5.0140    0.5810    2.9840 n         1 MOL     -0.028407
    178 C54         5.7880    0.5830    4.2560 c3        1 MOL     -0.333220
    179 H86         6.7580    1.0520    4.0900 h1        1 MOL      0.124877
    180 H87         5.2420    1.1420    5.0150 h1        1 MOL      0.124877
    181 H88         5.9350   -0.4430    4.5940 h1        1 MOL      0.124877
    182 H89         4.8820   -0.2260    2.3970 hn        1 MOL      0.055938
    183 Ca1        -1.8190   -0.6440   -1.5210 Ca        1 MOL      1.724472
    184 O25        -0.1690   -0.2230   -3.6240 oh        1 MOL     -0.864149
    185 H90         0.6230   -0.3910   -4.1240 ho        1 MOL      0.401398
    186 H91        -0.8200    0.0470   -4.2790 ho        1 MOL      0.401398
    187 O26        -1.1580   -3.2150   -1.9830 oh        1 MOL     -0.864149
    188 H92        -0.5170   -3.7520   -2.4530 ho        1 MOL      0.401398
    189 H93        -1.7930   -3.8450   -1.6450 ho        1 MOL      0.401398
@<TRIPOS>BOND
     1    1    2 1   
     2    1    4 1   
     3    1    5 1   
     4    1    6 1   
     5    2    3 2   
     6    2    7 1   
     7    7    8 1   
     8    7   15 1   
     9    8    9 1   
    10    8   11 1   
    11    8   16 1   
    12    9   10 2   
    13    9   19 1   
    14   11   12 1   
    15   11   17 1   
    16   11   18 1   
    17   12   13 1   
    18   12   14 1   
    19   19   20 1   
    20   19   28 1   
    21   20   21 1   
    22   20   23 1   
    23   20   29 1   
    24   21   22 2   
    25   21   41 1   
    26   23   24 1   
    27   23   30 1   
    28   23   31 1   
    29   24   25 1   
    30   24   32 1   
    31   24   33 1   
    32   25   26 1   
    33   25   34 1   
    34   25   35 1   
    35   26   27 1   
    36   26   36 1   
    37   26   37 1   
    38   27   38 1   
    39   27   39 1   
    40   27   40 1   
    41   41   42 1   
    42   41   49 1   
    43   42   43 1   
    44   42   45 1   
    45   42   50 1   
    46   43   44 2   
    47   43   53 1   
    48   45   46 1   
    49   45   51 1   
    50   45   52 1   
    51   46   47 1   
    52   46   48 1   
    53   53   54 1   
    54   53   57 1   
    55   54   55 1   
    56   54   58 1   
    57   54   59 1   
    58   55   56 2   
    59   55   60 1   
    60   60   61 1   
    61   60   68 1   
    62   61   62 1   
    63   61   64 1   
    64   61   69 1   
    65   62   63 2   
    66   62   72 1   
    67   64   65 1   
    68   64   70 1   
    69   64   71 1   
    70   65   66 1   
    71   65   67 1   
    72   72   73 1   
    73   72   76 1   
    74   73   74 1   
    75   73   77 1   
    76   73   78 1   
    77   74   75 2   
    78   74   79 1   
    79   79   80 1   
    80   79   86 1   
    81   80   81 1   
    82   80   83 1   
    83   80   87 1   
    84   81   82 2   
    85   81   93 1   
    86   83   84 1   
    87   83   85 1   
    88   83   88 1   
    89   84   90 1   
    90   84   91 1   
    91   84   92 1   
    92   85   89 1   
    93   93   94 1   
    94   93  101 1   
    95   94   95 1   
    96   94   97 1   
    97   94  102 1   
    98   95   96 2   
    99   95  112 1   
   100   97   98 1   
   101   97   99 1   
   102   97  103 1   
   103   98  100 1   
   104   98  104 1   
   105   98  105 1   
   106   99  106 1   
   107   99  107 1   
   108   99  108 1   
   109  100  109 1   
   110  100  110 1   
   111  100  111 1   
   112  112  113 1   
   113  112  119 1   
   114  113  114 1   
   115  113  116 1   
   116  113  120 1   
   117  114  115 2   
   118  114  126 1   
   119  116  117 1   
   120  116  118 1   
   121  116  121 1   
   122  117  123 1   
   123  117  124 1   
   124  117  125 1   
   125  118  122 1   
   126  126  127 1   
   127  126  133 1   
   128  127  128 1   
   129  127  130 1   
   130  127  134 1   
   131  128  129 2   
   132  128  140 1   
   133  130  131 1   
   134  130  132 1   
   135  130  135 1   
   136  131  137 1   
   137  131  138 1   
   138  131  139 1   
   139  132  136 1   
   140  140  141 1   
   141  140  149 1   
   142  141  142 1   
   143  141  144 1   
   144  141  150 1   
   145  142  143 2   
   146  142  162 1   
   147  144  145 1   
   148  144  151 1   
   149  144  152 1   
   150  145  146 1   
   151  145  153 1   
   152  145  154 1   
   153  146  147 1   
   154  146  155 1   
   155  146  156 1   
   156  147  148 1   
   157  147  157 1   
   158  147  158 1   
   159  148  159 1   
   160  148  160 1   
   161  148  161 1   
   162  162  163 1   
   163  162  171 1   
   164  163  164 1   
   165  163  166 1   
   166  163  172 1   
   167  164  165 2   
   168  164  177 1   
   169  166  167 1   
   170  166  173 1   
   171  166  174 1   
   172  167  168 1   
   173  167  175 1   
   174  167  176 1   
   175  168  169 1   
   176  168  170 1   
   177  177  178 1   
   178  177  182 1   
   179  178  179 1   
   180  178  180 1   
   181  178  181 1   
   182  184  185 1   
   183  184  186 1   
   184  187  188 1   
   185  187  189 1   
@<TRIPOS>SUBSTRUCTURE
     1 MOL         1 TEMP              0 ****  ****    0 ROOT
