@<TRIPOS>MOLECULE
MOL
  186   183     1     0     0
SMALL
resp


@<TRIPOS>ATOM
      1 C1          0.3040   -1.7530    6.5710 c3        1 MOL     -0.509660
      2 C2          0.7490   -1.7010    5.1240 c         1 MOL      0.753765
      3 O1          0.7710   -0.6350    4.4400 o         1 MOL     -0.645984
      4 H1          0.0720   -2.7830    6.8430 hc        1 MOL      0.134882
      5 H2          1.1040   -1.3810    7.2110 hc        1 MOL      0.134882
      6 H3         -0.5840   -1.1350    6.7010 hc        1 MOL      0.134882
      7 N1          1.1710   -2.8590    4.5600 n         1 MOL     -0.620921
      8 C3          1.9540   -2.9540    3.2480 c3        1 MOL      0.210608
      9 C4          1.8070   -4.2340    2.5310 c         1 MOL      0.412525
     10 O2          1.8560   -5.3030    3.1360 o         1 MOL     -0.599850
     11 C5          3.5140   -2.9590    3.5970 c3        1 MOL     -0.171537
     12 C6          4.2940   -2.5350    2.3380 c         1 MOL      0.765199
     13 O3          5.5310   -2.6160    2.3160 o         1 MOL     -0.710805
     14 O4          3.7320   -2.0810    1.3170 o         1 MOL     -0.710805
     15 H4          0.9760   -3.7140    5.0650 hn        1 MOL      0.316063
     16 H5          1.7040   -2.0950    2.6250 h1        1 MOL      0.164579
     17 H6          3.7530   -3.9320    4.0170 hc        1 MOL      0.028768
     18 H7          3.6660   -2.1610    4.3320 hc        1 MOL      0.028768
     19 N2          1.7910   -4.2770    1.1990 n         1 MOL      0.189154
     20 C7          1.9990   -5.4130    0.3780 c3        1 MOL     -0.005038
     21 C8          3.0650   -5.3750   -0.7540 c         1 MOL      0.381813
     22 O5          3.6070   -6.4710   -1.0700 o         1 MOL     -0.588028
     23 C9          0.6540   -5.9390   -0.1700 c3        1 MOL      0.014390
     24 C10        -0.0980   -5.0790   -1.1880 c3        1 MOL      0.174199
     25 C11        -0.2800   -6.3570    1.0500 c3        1 MOL     -0.103083
     26 C12        -1.1340   -5.9210   -1.9900 c3        1 MOL     -0.401353
     27 H8          1.5770   -3.3980    0.7460 hn        1 MOL     -0.443342
     28 H9          2.4360   -6.2010    1.0020 h1        1 MOL      0.067531
     29 H10         0.9070   -6.8570   -0.6960 hc        1 MOL      0.007650
     30 H11         0.6180   -4.7520   -1.9420 hc        1 MOL      0.030412
     31 H12        -0.5880   -4.1980   -0.7780 hc        1 MOL      0.030412
     32 H13        -1.1390   -6.9820    0.7930 hc        1 MOL      0.015896
     33 H14         0.1820   -6.9340    1.8460 hc        1 MOL      0.015896
     34 H15        -0.7900   -5.5090    1.4980 hc        1 MOL      0.015896
     35 H16        -1.8280   -5.2050   -2.4330 hc        1 MOL      0.088245
     36 H17        -0.6470   -6.6230   -2.6710 hc        1 MOL      0.088245
     37 H18        -1.7710   -6.4780   -1.3110 hc        1 MOL      0.088245
     38 N3          3.3590   -4.2270   -1.3130 n         1 MOL     -0.070108
     39 C13         4.2370   -4.0000   -2.4800 c3        1 MOL     -0.042648
     40 C14         5.6070   -3.2950   -2.1590 c         1 MOL      0.380504
     41 O6          6.4990   -3.0870   -3.0270 o         1 MOL     -0.538447
     42 C15         3.3930   -3.3300   -3.5500 c3        1 MOL     -0.181175
     43 C16         3.0110   -1.9300   -3.2300 c         1 MOL      0.781784
     44 O7          3.1480   -1.4630   -2.0940 o         1 MOL     -0.723167
     45 O8          2.2970   -1.3410   -4.0720 o         1 MOL     -0.723167
     46 H19         2.8390   -3.3920   -1.0610 hn        1 MOL      0.173255
     47 H20         4.5270   -4.9030   -3.0260 h1        1 MOL      0.083035
     48 H21         2.4820   -3.9140   -3.6530 hc        1 MOL      0.053499
     49 H22         3.9470   -3.4050   -4.4950 hc        1 MOL      0.053499
     50 N4          5.7880   -2.8360   -0.9200 n         1 MOL     -0.101613
     51 C17         7.0550   -2.3780   -0.3570 c3        1 MOL     -0.332609
     52 C18         7.5710   -1.0200   -0.8400 c         1 MOL      0.476918
     53 O9          8.7400   -0.6560   -0.5760 o         1 MOL     -0.602281
     54 H23         5.0080   -2.9660   -0.2850 hn        1 MOL      0.122158
     55 H24         7.8760   -3.0610   -0.5980 h1        1 MOL      0.164000
     56 H25         7.0340   -2.2710    0.7270 h1        1 MOL      0.164000
     57 N5          6.7350   -0.2000   -1.4860 n         1 MOL     -0.127153
     58 C19         7.1380    1.1750   -2.0060 c3        1 MOL     -0.014879
     59 C20         7.3310    2.2650   -0.9490 c         1 MOL      0.366061
     60 O10         7.9640    3.2820   -1.0840 o         1 MOL     -0.532180
     61 C21         6.0900    1.7430   -2.9520 c3        1 MOL     -0.001154
     62 C22         4.6630    1.6480   -2.4760 c         1 MOL      0.825836
     63 O11         4.3080    1.1980   -1.2990 o         1 MOL     -0.715632
     64 O12         3.8510    2.1920   -3.2640 o         1 MOL     -0.715632
     65 H26         5.7940   -0.4960   -1.7480 hn        1 MOL      0.051769
     66 H27         8.0440    1.0120   -2.6070 h1        1 MOL      0.082058
     67 H28         6.2030    1.2280   -3.9010 hc        1 MOL      0.009619
     68 H29         6.3050    2.7710   -3.2310 hc        1 MOL      0.009619
     69 N6          6.8680    1.9910    0.2900 n         1 MOL     -0.109239
     70 C23         6.9490    3.0100    1.3560 c3        1 MOL     -0.164291
     71 C24         5.7320    3.9450    1.2850 c         1 MOL      0.518453
     72 O13         5.7660    4.9780    1.9680 o         1 MOL     -0.601356
     73 H30         6.4030    1.1120    0.4700 hn        1 MOL      0.141142
     74 H31         7.8860    3.5500    1.2840 h1        1 MOL      0.101183
     75 H32         6.9560    2.5390    2.3370 h1        1 MOL      0.101183
     76 N7          4.6150    3.6470    0.5710 n         1 MOL     -0.244387
     77 C25         3.3630    4.4470    0.5350 c3        1 MOL      0.030512
     78 C26         2.1120    3.5530    0.7980 c         1 MOL      0.298128
     79 O14         2.0310    2.3990    0.3680 o         1 MOL     -0.442542
     80 C27         3.1690    5.1120   -0.7850 c3        1 MOL     -0.267600
     81 C28         4.3310    6.0580   -1.0340 c3        1 MOL     -0.104682
     82 C29         3.8850    7.2300   -1.9420 c         1 MOL      0.601206
     83 N8          4.6230    8.3140   -1.8450 n         1 MOL     -0.778877
     84 O15         2.8940    7.1390   -2.6780 o         1 MOL     -0.552926
     85 H33         4.6920    2.8180   -0.0040 hn        1 MOL      0.088917
     86 H34         3.3390    5.1690    1.3560 h1        1 MOL      0.054252
     87 H35         2.2490    5.7010   -0.7640 hc        1 MOL      0.140201
     88 H36         3.0870    4.3120   -1.5210 hc        1 MOL      0.140201
     89 H37         5.1910    5.5440   -1.4740 hc        1 MOL      0.078756
     90 H38         4.6410    6.5040   -0.0920 hc        1 MOL      0.078756
     91 H39         5.4320    8.3140   -1.2430 hn        1 MOL      0.350300
     92 H40         4.2000    9.1230   -2.2770 hn        1 MOL      0.350300
     93 N9          1.1600    3.9730    1.5760 n         1 MOL     -0.261728
     94 C30        -0.0870    3.1720    1.8360 c3        1 MOL     -0.037068
     95 C31        -1.0490    3.3980    0.6160 c         1 MOL      0.495746
     96 O16        -1.6200    4.4480    0.3580 o         1 MOL     -0.580070
     97 C32        -0.7540    3.6030    3.1460 c3        1 MOL      0.103390
     98 C33        -2.1600    3.1210    3.3730 c3        1 MOL     -0.290640
     99 C34         0.1190    3.2430    4.3720 c3        1 MOL     -0.290640
    100 H41         1.2480    4.9140    1.9320 hn        1 MOL      0.230844
    101 H42         0.1420    2.1140    1.8470 h1        1 MOL      0.210699
    102 H43        -0.9140    4.6860    3.0540 hc        1 MOL      0.005957
    103 H44        -2.3490    3.3200    4.4250 hc        1 MOL      0.074658
    104 H45        -2.8570    3.7400    2.8210 hc        1 MOL      0.074658
    105 H46        -2.2700    2.0680    3.1110 hc        1 MOL      0.074658
    106 H47         0.0710    2.1670    4.5550 hc        1 MOL      0.074658
    107 H48         1.1790    3.4100    4.1790 hc        1 MOL      0.074658
    108 H49        -0.1520    3.6480    5.3470 hc        1 MOL      0.074658
    109 N10        -1.1770    2.3700   -0.2240 n         1 MOL     -0.072431
    110 C35        -2.3010    2.1600   -1.1260 c3        1 MOL     -0.053265
    111 C36        -3.6010    2.1400   -0.4200 c         1 MOL      0.431354
    112 O17        -3.6770    1.8540    0.7550 o         1 MOL     -0.370776
    113 C37        -2.0550    0.7720   -1.7850 c3        1 MOL     -0.294837
    114 C38        -2.9640    0.4280   -2.8970 c         1 MOL      0.736230
    115 N11        -3.0560    1.2670   -3.8420 n         1 MOL     -0.742480
    116 O18        -3.8010   -0.4160   -2.7980 o         1 MOL     -0.551523
    117 H50        -0.6480    1.5820    0.1190 hn        1 MOL     -0.085002
    118 H51        -2.3060    2.8910   -1.9300 h1        1 MOL      0.058077
    119 H52        -2.1850    0.1300   -0.9150 hc        1 MOL      0.165294
    120 H53        -1.0130    0.5900   -2.0340 hc        1 MOL      0.165294
    121 H54        -2.5120    2.1130   -3.9100 hn        1 MOL      0.347177
    122 H55        -3.8350    1.1940   -4.4830 hn        1 MOL      0.347177
    123 N12        -4.7180    2.3490   -1.1250 n         1 MOL     -0.385011
    124 C39        -6.0930    2.2280   -0.5930 c3        1 MOL      0.045501
    125 C40        -6.4200    0.7170   -0.2150 c         1 MOL      0.874276
    126 O19        -7.0590    0.5450    0.8170 o         1 MOL     -0.579567
    127 C41        -7.0860    2.9680   -1.4990 c3        1 MOL     -0.150312
    128 C42        -8.4550    2.6770   -1.1710 ca        1 MOL     -0.041349
    129 C43        -9.1050    3.4660   -0.2100 ca        1 MOL     -0.121935
    130 C44        -9.1640    1.6000   -1.7870 ca        1 MOL     -0.121935
    131 C45       -10.4030    3.1000    0.1610 ca        1 MOL     -0.334640
    132 C46       -10.4730    1.2760   -1.4830 ca        1 MOL     -0.334640
    133 C47       -11.0570    2.0490   -0.4510 ca        1 MOL      0.489129
    134 O20       -12.3600    1.8430   -0.1790 oh        1 MOL     -0.606758
    135 H56        -4.6490    2.5760   -2.1100 hn        1 MOL      0.211019
    136 H57        -5.9780    2.7530    0.3560 h1        1 MOL      0.080482
    137 H58        -6.8550    2.8290   -2.5570 hc        1 MOL      0.070323
    138 H59        -6.9860    4.0300   -1.2890 hc        1 MOL      0.070323
    139 H60        -8.6500    4.3140    0.2930 ha        1 MOL      0.135066
    140 H61        -8.6060    1.0280   -2.5080 ha        1 MOL      0.135066
    141 H62       -10.8980    3.6410    0.9460 ha        1 MOL      0.163326
    142 H63       -10.9760    0.4740   -2.0020 ha        1 MOL      0.163326
    143 H64       -12.8120    1.3210   -0.8510 ho        1 MOL      0.406431
    144 N13        -5.9340   -0.3320   -0.9480 n         1 MOL     -0.655766
    145 C48        -6.0650   -1.7060   -0.4820 c3        1 MOL      0.130381
    146 C49        -5.1420   -2.1120    0.6810 c         1 MOL      0.341245
    147 O21        -5.2860   -3.1880    1.2130 o         1 MOL     -0.511156
    148 C50        -5.9290   -2.6760   -1.6490 c3        1 MOL     -0.089410
    149 C51        -6.8580   -2.3580   -2.8310 c3        1 MOL     -0.170444
    150 C52        -7.0470   -3.6490   -3.7620 c         1 MOL      0.713823
    151 O22        -7.9290   -4.5160   -3.4360 o         1 MOL     -0.742244
    152 O23        -6.4730   -3.6370   -4.8520 o         1 MOL     -0.742244
    153 H65        -5.2060   -0.1900   -1.6370 hn        1 MOL      0.300122
    154 H66        -7.0920   -1.9290   -0.1620 h1        1 MOL      0.072536
    155 H67        -6.1810   -3.6820   -1.3320 hc        1 MOL      0.055032
    156 H68        -4.8980   -2.6840   -2.0070 hc        1 MOL      0.055032
    157 H69        -6.6130   -1.4310   -3.3590 hc        1 MOL      0.015267
    158 H70        -7.8760   -2.2010   -2.4890 hc        1 MOL      0.015267
    159 N14        -4.3300   -1.1280    1.1470 n         1 MOL     -0.014515
    160 C53        -3.5350   -1.2930    2.3850 c3        1 MOL     -0.078273
    161 C54        -3.9920   -0.4720    3.5170 c         1 MOL      0.452929
    162 O24        -3.5950   -0.6060    4.6530 o         1 MOL     -0.524086
    163 C55        -2.0990   -0.9290    1.9580 c3        1 MOL     -0.038112
    164 C56        -1.4440   -1.7950    0.8590 c3        1 MOL     -0.265668
    165 C57        -0.0460   -1.2460    0.4590 c         1 MOL      0.445769
    166 O25         0.8380   -1.9790   -0.0410 o         1 MOL     -0.478925
    167 O26         0.1850    0.0220    0.4980 o         1 MOL     -0.478925
    168 H71        -4.4840   -0.1970    0.8030 hn        1 MOL     -0.091137
    169 H72        -3.5440   -2.3100    2.7640 h1        1 MOL      0.103776
    170 H73        -1.5820   -0.9650    2.9100 hc        1 MOL      0.072715
    171 H74        -2.0120    0.0860    1.5630 hc        1 MOL      0.072715
    172 H75        -2.1730   -1.8600    0.0470 hc        1 MOL      0.113453
    173 H76        -1.3920   -2.8060    1.2640 hc        1 MOL      0.113453
    174 N15        -5.0330    0.4100    3.3550 n         1 MOL     -0.196629
    175 C58        -5.4620    1.4020    4.3260 c3        1 MOL     -0.089146
    176 H77        -5.8390    2.2810    3.8040 h1        1 MOL      0.052853
    177 H78        -6.2530    0.9820    4.9490 h1        1 MOL      0.052853
    178 H79        -4.6180    1.6860    4.9540 h1        1 MOL      0.052853
    179 H80        -5.3870    0.5600    2.4200 hn        1 MOL      0.120225
    180 Ca1         2.6590   -0.1790   -0.0120 Ca        1 MOL      1.710688
    181 O27         2.5820    0.3500    2.6120 oh        1 MOL     -0.939843
    182 H81         2.0360    0.1500    3.3660 ho        1 MOL      0.433668
    183 H82         3.4420    0.5530    2.9930 ho        1 MOL      0.433668
    184 O28         1.4860    0.8020   -2.5670 oh        1 MOL     -0.939843
    185 H83         1.7500    0.0620   -3.1110 ho        1 MOL      0.433668
    186 H84         2.0360    1.5330   -2.8690 ho        1 MOL      0.433668
@<TRIPOS>BOND
     1    1    2 1   
     2    1    4 1   
     3    1    5 1   
     4    1    6 1   
     5    2    3 2   
     6    2    7 1   
     7    7    8 1   
     8    7   15 1   
     9    8    9 1   
    10    8   11 1   
    11    8   16 1   
    12    9   10 2   
    13    9   19 1   
    14   11   12 1   
    15   11   17 1   
    16   11   18 1   
    17   12   13 1   
    18   12   14 1   
    19   19   20 1   
    20   19   27 1   
    21   20   21 1   
    22   20   23 1   
    23   20   28 1   
    24   21   22 2   
    25   21   38 1   
    26   23   24 1   
    27   23   25 1   
    28   23   29 1   
    29   24   26 1   
    30   24   30 1   
    31   24   31 1   
    32   25   32 1   
    33   25   33 1   
    34   25   34 1   
    35   26   35 1   
    36   26   36 1   
    37   26   37 1   
    38   38   39 1   
    39   38   46 1   
    40   39   40 1   
    41   39   42 1   
    42   39   47 1   
    43   40   41 2   
    44   40   50 1   
    45   42   43 1   
    46   42   48 1   
    47   42   49 1   
    48   43   44 1   
    49   43   45 1   
    50   50   51 1   
    51   50   54 1   
    52   51   52 1   
    53   51   55 1   
    54   51   56 1   
    55   52   53 2   
    56   52   57 1   
    57   57   58 1   
    58   57   65 1   
    59   58   59 1   
    60   58   61 1   
    61   58   66 1   
    62   59   60 2   
    63   59   69 1   
    64   61   62 1   
    65   61   67 1   
    66   61   68 1   
    67   62   63 1   
    68   62   64 1   
    69   69   70 1   
    70   69   73 1   
    71   70   71 1   
    72   70   74 1   
    73   70   75 1   
    74   71   72 2   
    75   71   76 1   
    76   76   77 1   
    77   76   85 1   
    78   77   78 1   
    79   77   80 1   
    80   77   86 1   
    81   78   79 2   
    82   78   93 1   
    83   80   81 1   
    84   80   87 1   
    85   80   88 1   
    86   81   82 1   
    87   81   89 1   
    88   81   90 1   
    89   82   83 1   
    90   82   84 2   
    91   83   91 1   
    92   83   92 1   
    93   93   94 1   
    94   93  100 1   
    95   94   95 1   
    96   94   97 1   
    97   94  101 1   
    98   95   96 2   
    99   95  109 1   
   100   97   98 1   
   101   97   99 1   
   102   97  102 1   
   103   98  103 1   
   104   98  104 1   
   105   98  105 1   
   106   99  106 1   
   107   99  107 1   
   108   99  108 1   
   109  109  110 1   
   110  109  117 1   
   111  110  111 1   
   112  110  113 1   
   113  110  118 1   
   114  111  112 2   
   115  111  123 1   
   116  113  114 1   
   117  113  119 1   
   118  113  120 1   
   119  114  115 1   
   120  114  116 2   
   121  115  121 1   
   122  115  122 1   
   123  123  124 1   
   124  123  135 1   
   125  124  125 1   
   126  124  127 1   
   127  124  136 1   
   128  125  126 2   
   129  125  144 1   
   130  127  128 1   
   131  127  137 1   
   132  127  138 1   
   133  128  129 ar  
   134  128  130 ar  
   135  129  131 ar  
   136  129  139 1   
   137  130  132 ar  
   138  130  140 1   
   139  131  133 ar  
   140  131  141 1   
   141  132  133 ar  
   142  132  142 1   
   143  133  134 1   
   144  134  143 1   
   145  144  145 1   
   146  144  153 1   
   147  145  146 1   
   148  145  148 1   
   149  145  154 1   
   150  146  147 2   
   151  146  159 1   
   152  148  149 1   
   153  148  155 1   
   154  148  156 1   
   155  149  150 1   
   156  149  157 1   
   157  149  158 1   
   158  150  151 1   
   159  150  152 1   
   160  159  160 1   
   161  159  168 1   
   162  160  161 1   
   163  160  163 1   
   164  160  169 1   
   165  161  162 2   
   166  161  174 1   
   167  163  164 1   
   168  163  170 1   
   169  163  171 1   
   170  164  165 1   
   171  164  172 1   
   172  164  173 1   
   173  165  166 1   
   174  165  167 1   
   175  174  175 1   
   176  174  179 1   
   177  175  176 1   
   178  175  177 1   
   179  175  178 1   
   180  181  182 1   
   181  181  183 1   
   182  184  185 1   
   183  184  186 1   
@<TRIPOS>SUBSTRUCTURE
     1 MOL         1 TEMP              0 ****  ****    0 ROOT
