@<TRIPOS>MOLECULE
MOL
  179   176     1     0     0
SMALL
resp


@<TRIPOS>ATOM
      1 C1         -0.5420   -2.9930    6.4730 c3        1 MOL     -0.354944
      2 C2         -0.3810   -2.7510    4.9400 c         1 MOL      0.831132
      3 O1         -1.3740   -2.7160    4.2290 o         1 MOL     -0.618227
      4 H1         -0.1110   -2.1550    7.0190 hc        1 MOL      0.088217
      5 H2         -1.6010   -3.0800    6.7180 hc        1 MOL      0.088217
      6 H3         -0.0270   -3.9120    6.7530 hc        1 MOL      0.088217
      7 N1          0.8030   -2.4860    4.4540 n         1 MOL     -0.727308
      8 C3          1.1540   -2.4280    3.0640 c3        1 MOL      0.302733
      9 C4          1.0390   -3.7650    2.4920 c         1 MOL      0.480963
     10 O2          1.3690   -4.7990    3.0890 o         1 MOL     -0.548125
     11 C5          2.5790   -1.8120    2.8480 c3        1 MOL     -0.238129
     12 C6          2.8860   -1.4380    1.4180 c         1 MOL      0.726837
     13 O3          2.3220   -1.8380    0.4280 o         1 MOL     -0.661147
     14 O4          3.8600   -0.6800    1.2390 o         1 MOL     -0.661147
     15 H4          1.5720   -2.3450    5.0950 hn        1 MOL      0.331102
     16 H5          0.3860   -1.8480    2.5430 h1        1 MOL     -0.055315
     17 H6          3.2930   -2.5760    3.1630 hc        1 MOL      0.063738
     18 H7          2.6390   -0.9220    3.4740 hc        1 MOL      0.063738
     19 N2          0.3010   -3.8430    1.3680 n         1 MOL     -0.249134
     20 C7         -0.0970   -5.0160    0.6130 c3        1 MOL     -0.129405
     21 C8          0.9180   -5.6350   -0.3420 c         1 MOL      0.512221
     22 O5          0.7040   -6.7620   -0.8220 o         1 MOL     -0.563592
     23 C9         -1.4040   -4.6570   -0.2020 c3        1 MOL      0.129080
     24 C10        -2.2470   -5.9450   -0.4140 c3        1 MOL     -0.206661
     25 C11        -3.6050   -5.5880   -1.0600 c3        1 MOL      0.096217
     26 C12        -3.2960   -5.1130   -2.4070 c3        1 MOL      0.242820
     27 N3         -4.5550   -4.9390   -3.1870 n4        1 MOL     -0.597001
     28 H8          0.1220   -2.9890    0.8590 hn        1 MOL      0.241943
     29 H9         -0.3830   -5.8450    1.2500 h1        1 MOL      0.118602
     30 H10        -1.1830   -4.2640   -1.1920 hc        1 MOL      0.037472
     31 H11        -1.9230   -3.9030    0.3970 hc        1 MOL      0.037472
     32 H12        -2.3530   -6.5550    0.4890 hc        1 MOL      0.073050
     33 H13        -1.8250   -6.5660   -1.2060 hc        1 MOL      0.073050
     34 H14        -4.2280   -4.8540   -0.5480 hc        1 MOL     -0.009081
     35 H15        -4.1760   -6.5030   -1.1680 hc        1 MOL     -0.009081
     36 H16        -2.5120   -5.7570   -2.8210 hx        1 MOL      0.019538
     37 H17        -2.8090   -4.1470   -2.3570 hx        1 MOL      0.019538
     38 H18        -4.4870   -4.2750   -3.9490 hn        1 MOL      0.375347
     39 H19        -4.8700   -5.8030   -3.6040 hn        1 MOL      0.375347
     40 H20        -5.2560   -4.4460   -2.6450 hn        1 MOL      0.375347
     41 N4          2.0440   -4.9380   -0.5400 n         1 MOL     -0.256669
     42 C13         3.1700   -5.2910   -1.4520 c3        1 MOL      0.100830
     43 C14         4.5250   -4.8980   -0.7970 c         1 MOL      0.384500
     44 O6          5.5050   -5.6800   -0.8310 o         1 MOL     -0.537007
     45 C15         2.9360   -4.5810   -2.8210 c3        1 MOL     -0.137443
     46 C16         2.3920   -3.1400   -2.6390 c         1 MOL      0.657275
     47 O7          1.1840   -2.8390   -2.6440 o         1 MOL     -0.739214
     48 O8          3.3230   -2.3570   -2.3030 o         1 MOL     -0.739214
     49 H21         2.1410   -4.0790   -0.0260 hn        1 MOL      0.051091
     50 H22         3.2410   -6.3660   -1.6050 h1        1 MOL      0.077684
     51 H23         2.1640   -5.1950   -3.2830 hc        1 MOL      0.031049
     52 H24         3.7850   -4.6640   -3.4860 hc        1 MOL      0.031049
     53 N5          4.5300   -3.8210   -0.0470 n         1 MOL     -0.124925
     54 C17         5.6700   -3.4040    0.7700 c3        1 MOL     -0.073661
     55 C18         6.6160   -2.3680    0.2220 c         1 MOL      0.600329
     56 O9          7.8290   -2.4700    0.4640 o         1 MOL     -0.571384
     57 H25         3.6850   -3.2790   -0.0340 hn        1 MOL      0.213283
     58 H26         6.2380   -4.3040    1.0000 h1        1 MOL      0.059747
     59 H27         5.2440   -3.0050    1.6880 h1        1 MOL      0.059747
     60 N6          6.0670   -1.3730   -0.5130 n         1 MOL     -0.360382
     61 C19         6.7930   -0.1910   -1.1010 c3        1 MOL      0.030020
     62 C20         6.8910    0.9920   -0.1620 c         1 MOL      0.334968
     63 O10         7.6040    1.9190   -0.5440 o         1 MOL     -0.494328
     64 C21         6.1960    0.1040   -2.4350 c3        1 MOL     -0.233445
     65 C22         4.8510    0.8820   -2.3530 c         1 MOL      0.722536
     66 N7          4.7430    2.0390   -2.9480 n         1 MOL     -0.901404
     67 O11         3.9330    0.5790   -1.6150 o         1 MOL     -0.589739
     68 H28         5.0620   -1.3350   -0.5950 hn        1 MOL      0.204043
     69 H29         7.8470   -0.4600   -1.1420 h1        1 MOL      0.111357
     70 H30         5.9930   -0.7500   -3.0760 hc        1 MOL      0.092953
     71 H31         6.8790    0.7690   -2.9560 hc        1 MOL      0.092953
     72 H32         5.5200    2.5140   -3.3850 hn        1 MOL      0.420170
     73 H33         3.8410    2.4370   -2.7100 hn        1 MOL      0.420170
     74 N8          6.1410    0.9060    0.8950 n         1 MOL     -0.084343
     75 C23         6.0270    1.9090    2.0090 c3        1 MOL     -0.209202
     76 C24         4.8180    2.8620    1.8820 c         1 MOL      0.575340
     77 O12         4.8040    3.9360    2.4530 o         1 MOL     -0.540230
     78 H34         5.5540    0.0950    1.0660 hn        1 MOL      0.151688
     79 H35         6.9070    2.5310    2.1380 h1        1 MOL      0.118622
     80 H36         5.9390    1.3750    2.9540 h1        1 MOL      0.118622
     81 N9          3.7560    2.5080    1.1070 n         1 MOL     -0.340434
     82 C25         2.5180    3.3750    0.8400 c3        1 MOL      0.157258
     83 C26         1.2430    2.5340    0.6780 c         1 MOL      0.450929
     84 O13         1.1840    1.3880    0.2770 o         1 MOL     -0.575933
     85 C27         2.7320    4.3050   -0.3570 c3        1 MOL      0.268772
     86 C28         3.8090    5.3030   -0.3450 ca        1 MOL     -0.153902
     87 C29         5.1050    4.9860   -0.6420 ca        1 MOL     -0.018125
     88 C30         3.5830    6.6410    0.0710 ca        1 MOL     -0.018125
     89 C31         6.1360    5.8990   -0.6570 ca        1 MOL     -0.409461
     90 C32         4.6070    7.6740   -0.0470 ca        1 MOL     -0.409461
     91 C33         5.8920    7.2490   -0.3880 ca        1 MOL      0.545265
     92 O14         6.8990    8.1160   -0.5270 oh        1 MOL     -0.549852
     93 H37         3.7320    1.5500    0.7990 hn        1 MOL      0.151801
     94 H38         2.2920    4.0550    1.6480 h1        1 MOL      0.005836
     95 H39         1.7890    4.8140   -0.5400 hc        1 MOL     -0.091252
     96 H40         2.9580    3.6940   -1.2320 hc        1 MOL     -0.091252
     97 H41         5.3230    3.9370   -0.7880 ha        1 MOL      0.092102
     98 H42         2.5710    6.7850    0.3990 ha        1 MOL      0.092102
     99 H43         7.1130    5.5560   -0.9740 ha        1 MOL      0.167881
    100 H44         4.4960    8.7080    0.2310 ha        1 MOL      0.167881
    101 H45         6.8350    9.0580   -0.4050 ho        1 MOL      0.388626
    102 N10         0.0970    3.2010    0.9680 n         1 MOL     -0.281896
    103 C34        -1.2250    2.5840    0.8320 c3        1 MOL     -0.521659
    104 C35        -2.0890    3.6290    0.2030 c         1 MOL      0.705808
    105 O15        -2.1390    4.8150    0.5310 o         1 MOL     -0.559615
    106 C36        -1.8830    2.1320    2.1580 c3        1 MOL     -0.011041
    107 C37        -1.8830    3.1670    3.3020 c3        1 MOL     -0.162626
    108 C38        -1.0810    0.8810    2.5590 c3        1 MOL     -0.378943
    109 C39        -2.6960    2.7580    4.4770 c3        1 MOL     -0.015598
    110 H46         0.0220    4.1790    1.2050 hn        1 MOL      0.278525
    111 H47        -1.1490    1.7160    0.1820 h1        1 MOL      0.347493
    112 H48        -2.8720    1.7520    1.9140 hc        1 MOL      0.107473
    113 H49        -2.4540    4.0080    2.9100 hc        1 MOL      0.089572
    114 H50        -0.9270    3.5500    3.6700 hc        1 MOL      0.089572
    115 H51        -1.4470    0.3820    3.4600 hc        1 MOL      0.143449
    116 H52        -0.9210    0.1680    1.7530 hc        1 MOL      0.143449
    117 H53        -0.1110    1.3090    2.8200 hc        1 MOL      0.143449
    118 H54        -3.6930    2.4670    4.1340 hc        1 MOL      0.006013
    119 H55        -2.2410    1.9510    5.0440 hc        1 MOL      0.006013
    120 H56        -2.8570    3.6290    5.1120 hc        1 MOL      0.006013
    121 N11        -2.8750    3.1660   -0.7530 n         1 MOL     -0.512551
    122 C40        -4.1390    3.6500   -1.2640 c3        1 MOL      0.324832
    123 C41        -5.3650    3.3340   -0.3640 c         1 MOL      0.336587
    124 O16        -5.3010    2.5910    0.6280 o         1 MOL     -0.346650
    125 C42        -4.3010    2.9660   -2.5820 c3        1 MOL     -0.392288
    126 O17        -4.6330    1.5610   -2.4320 oh        1 MOL     -0.208982
    127 H57        -2.7060    2.2220   -1.0730 hn        1 MOL      0.246334
    128 H58        -4.0420    4.7300   -1.3930 h1        1 MOL      0.041714
    129 H59        -3.4810    3.0480   -3.2870 h1        1 MOL      0.128150
    130 H60        -5.2310    3.3070   -3.0350 h1        1 MOL      0.128150
    131 H61        -4.2940    1.0470   -3.1720 ho        1 MOL      0.329757
    132 N12        -6.4670    3.8600   -0.6800 n         1 MOL     -0.369280
    133 C43        -7.8820    3.6360   -0.2950 c3        1 MOL      0.166575
    134 C44        -8.2290    2.1520   -0.4550 c         1 MOL      0.376467
    135 O18        -8.9560    1.6230    0.3510 o         1 MOL     -0.470294
    136 C45        -8.7890    4.5420   -1.1080 c3        1 MOL     -0.472134
    137 H62        -6.3630    4.5520   -1.4160 hn        1 MOL      0.244437
    138 H63        -8.0410    3.9890    0.7240 h1        1 MOL      0.090525
    139 H64        -8.7470    5.5460   -0.7000 hc        1 MOL      0.144458
    140 H65        -8.6070    4.5410   -2.1860 hc        1 MOL      0.144458
    141 H66        -9.8040    4.1860   -0.9500 hc        1 MOL      0.144458
    142 N13        -7.8030    1.5490   -1.5680 n         1 MOL     -0.305055
    143 C46        -8.1280    0.1540   -1.8370 c3        1 MOL      0.080192
    144 C47        -7.3650   -0.7000   -0.8230 c         1 MOL      0.373714
    145 O19        -7.8720   -1.6930   -0.3350 o         1 MOL     -0.513639
    146 C48        -7.8590   -0.1410   -3.3300 c3        1 MOL     -0.216540
    147 H67        -7.2920    2.0150   -2.3160 hn        1 MOL      0.255938
    148 H68        -9.1820    0.0360   -1.5960 h1        1 MOL      0.102246
    149 H69        -6.8090    0.0640   -3.5460 hc        1 MOL      0.049284
    150 H70        -7.9930   -1.2190   -3.4400 hc        1 MOL      0.049284
    151 H71        -8.3930    0.4780   -4.0510 hc        1 MOL      0.049284
    152 N14        -6.0990   -0.4300   -0.6040 n         1 MOL     -0.001352
    153 C49        -5.2280   -1.0290    0.3500 c3        1 MOL     -0.134816
    154 C50        -5.6400   -0.8910    1.8360 c         1 MOL      0.426097
    155 O20        -5.6450   -1.9350    2.5590 o         1 MOL     -0.519291
    156 C51        -3.7930   -0.4580    0.2070 c3        1 MOL     -0.061666
    157 C52        -3.1160   -1.1280   -0.9770 c3        1 MOL      0.153304
    158 C53        -1.6210   -0.7460   -1.1490 c         1 MOL      0.533638
    159 O21        -1.3720    0.2950   -1.7620 o         1 MOL     -0.690275
    160 O22        -0.7680   -1.4640   -0.6210 o         1 MOL     -0.690275
    161 H72        -5.6100    0.3220   -1.0840 hn        1 MOL     -0.055351
    162 H73        -5.1230   -2.0880    0.1190 h1        1 MOL      0.072316
    163 H74        -3.2280   -0.7880    1.0800 hc        1 MOL      0.062534
    164 H75        -3.8260    0.6340    0.2060 hc        1 MOL      0.062534
    165 H76        -3.6800   -0.9710   -1.8960 hc        1 MOL     -0.095621
    166 H77        -3.2640   -2.2090   -0.9330 hc        1 MOL     -0.095621
    167 N15        -6.1740    0.2700    2.2090 n         1 MOL     -0.047675
    168 C54        -6.5800    0.5200    3.5430 c3        1 MOL     -0.330698
    169 H78        -5.9540    1.3020    3.9720 h1        1 MOL      0.119621
    170 H79        -7.6210    0.8440    3.5520 h1        1 MOL      0.119621
    171 H80        -6.4780   -0.3920    4.1320 h1        1 MOL      0.119621
    172 H81        -6.0480    1.0800    1.6140 hn        1 MOL      0.126355
    173 Ca1         1.4050   -0.4180   -1.6790 Ca        1 MOL      1.770183
    174 O23         1.1240    1.9370   -3.0340 oh        1 MOL     -0.875026
    175 H82         0.7860    2.7900   -2.7370 ho        1 MOL      0.427564
    176 H83         1.1640    2.0130   -3.9820 ho        1 MOL      0.427564
    177 O24         1.5100   -0.5210   -4.3390 oh        1 MOL     -0.875026
    178 H84         1.0040   -0.2180   -5.0910 ho        1 MOL      0.427564
    179 H85         1.9380   -1.3180   -4.6430 ho        1 MOL      0.427564
@<TRIPOS>BOND
     1    1    2 1   
     2    1    4 1   
     3    1    5 1   
     4    1    6 1   
     5    2    3 2   
     6    2    7 1   
     7    7    8 1   
     8    7   15 1   
     9    8    9 1   
    10    8   11 1   
    11    8   16 1   
    12    9   10 2   
    13    9   19 1   
    14   11   12 1   
    15   11   17 1   
    16   11   18 1   
    17   12   13 1   
    18   12   14 1   
    19   19   20 1   
    20   19   28 1   
    21   20   21 1   
    22   20   23 1   
    23   20   29 1   
    24   21   22 2   
    25   21   41 1   
    26   23   24 1   
    27   23   30 1   
    28   23   31 1   
    29   24   25 1   
    30   24   32 1   
    31   24   33 1   
    32   25   26 1   
    33   25   34 1   
    34   25   35 1   
    35   26   27 1   
    36   26   36 1   
    37   26   37 1   
    38   27   38 1   
    39   27   39 1   
    40   27   40 1   
    41   41   42 1   
    42   41   49 1   
    43   42   43 1   
    44   42   45 1   
    45   42   50 1   
    46   43   44 2   
    47   43   53 1   
    48   45   46 1   
    49   45   51 1   
    50   45   52 1   
    51   46   47 1   
    52   46   48 1   
    53   53   54 1   
    54   53   57 1   
    55   54   55 1   
    56   54   58 1   
    57   54   59 1   
    58   55   56 2   
    59   55   60 1   
    60   60   61 1   
    61   60   68 1   
    62   61   62 1   
    63   61   64 1   
    64   61   69 1   
    65   62   63 2   
    66   62   74 1   
    67   64   65 1   
    68   64   70 1   
    69   64   71 1   
    70   65   66 1   
    71   65   67 2   
    72   66   72 1   
    73   66   73 1   
    74   74   75 1   
    75   74   78 1   
    76   75   76 1   
    77   75   79 1   
    78   75   80 1   
    79   76   77 2   
    80   76   81 1   
    81   81   82 1   
    82   81   93 1   
    83   82   83 1   
    84   82   85 1   
    85   82   94 1   
    86   83   84 2   
    87   83  102 1   
    88   85   86 1   
    89   85   95 1   
    90   85   96 1   
    91   86   87 ar  
    92   86   88 ar  
    93   87   89 ar  
    94   87   97 1   
    95   88   90 ar  
    96   88   98 1   
    97   89   91 ar  
    98   89   99 1   
    99   90   91 ar  
   100   90  100 1   
   101   91   92 1   
   102   92  101 1   
   103  102  103 1   
   104  102  110 1   
   105  103  104 1   
   106  103  106 1   
   107  103  111 1   
   108  104  105 2   
   109  104  121 1   
   110  106  107 1   
   111  106  108 1   
   112  106  112 1   
   113  107  109 1   
   114  107  113 1   
   115  107  114 1   
   116  108  115 1   
   117  108  116 1   
   118  108  117 1   
   119  109  118 1   
   120  109  119 1   
   121  109  120 1   
   122  121  122 1   
   123  121  127 1   
   124  122  123 1   
   125  122  125 1   
   126  122  128 1   
   127  123  124 2   
   128  123  132 1   
   129  125  126 1   
   130  125  129 1   
   131  125  130 1   
   132  126  131 1   
   133  132  133 1   
   134  132  137 1   
   135  133  134 1   
   136  133  136 1   
   137  133  138 1   
   138  134  135 2   
   139  134  142 1   
   140  136  139 1   
   141  136  140 1   
   142  136  141 1   
   143  142  143 1   
   144  142  147 1   
   145  143  144 1   
   146  143  146 1   
   147  143  148 1   
   148  144  145 2   
   149  144  152 1   
   150  146  149 1   
   151  146  150 1   
   152  146  151 1   
   153  152  153 1   
   154  152  161 1   
   155  153  154 1   
   156  153  156 1   
   157  153  162 1   
   158  154  155 2   
   159  154  167 1   
   160  156  157 1   
   161  156  163 1   
   162  156  164 1   
   163  157  158 1   
   164  157  165 1   
   165  157  166 1   
   166  158  159 1   
   167  158  160 1   
   168  167  168 1   
   169  167  172 1   
   170  168  169 1   
   171  168  170 1   
   172  168  171 1   
   173  174  175 1   
   174  174  176 1   
   175  177  178 1   
   176  177  179 1   
@<TRIPOS>SUBSTRUCTURE
     1 MOL         1 TEMP              0 ****  ****    0 ROOT
