@<TRIPOS>MOLECULE
MOL
  175   173     1     0     0
SMALL
resp


@<TRIPOS>ATOM
      1 C1         -0.5740   -3.4210    5.8530 c3        1 MOL     -0.363663
      2 C2          0.1510   -3.5600    4.4650 c         1 MOL      0.692871
      3 O1         -0.5360   -3.7090    3.4430 o         1 MOL     -0.539170
      4 H1         -1.5370   -3.9310    5.8110 hc        1 MOL      0.092330
      5 H2          0.0410   -3.8710    6.6320 hc        1 MOL      0.092330
      6 H3         -0.7310   -2.3660    6.0770 hc        1 MOL      0.092330
      7 N1          1.5040   -3.5100    4.3390 n         1 MOL     -0.687115
      8 C3          2.1580   -3.3120    3.0720 c3        1 MOL      0.335013
      9 C4          2.2970   -4.5830    2.1590 c         1 MOL      0.500707
     10 O2          2.5960   -5.6710    2.7030 o         1 MOL     -0.578121
     11 C5          3.4580   -2.5540    3.3850 c3        1 MOL     -0.259931
     12 C6          4.2220   -2.0410    2.1020 c         1 MOL      0.686829
     13 O3          5.4800   -1.8170    2.2880 o         1 MOL     -0.671965
     14 O4          3.5880   -1.8990    1.0170 o         1 MOL     -0.671965
     15 H4          2.0400   -3.4600    5.1860 hn        1 MOL      0.324815
     16 H5          1.4950   -2.6430    2.5080 h1        1 MOL      0.028992
     17 H6          4.0860   -3.1910    4.0170 hc        1 MOL      0.031734
     18 H7          3.2020   -1.6480    3.9240 hc        1 MOL      0.031734
     19 N2          2.1260   -4.4210    0.8320 n         1 MOL     -0.448705
     20 C7          2.1980   -5.4680   -0.0990 c3        1 MOL      0.386684
     21 C8          3.1600   -5.1530   -1.2800 c         1 MOL      0.401932
     22 O5          3.2530   -6.0390   -2.1460 o         1 MOL     -0.552317
     23 C9          0.7030   -5.7210   -0.4890 c3        1 MOL     -0.270965
     24 H8          1.6170   -3.5990    0.5300 hn        1 MOL      0.279509
     25 H9          2.5630   -6.3930    0.3430 h1        1 MOL     -0.016807
     26 H10         0.4070   -4.8270   -1.0420 hc        1 MOL      0.062031
     27 H11         0.6390   -6.5460   -1.2050 hc        1 MOL      0.062031
     28 H12         0.1360   -5.9910    0.4020 hc        1 MOL      0.062031
     29 N3          3.8420   -3.9340   -1.3530 n         1 MOL     -0.311961
     30 C10         4.7710   -3.6420   -2.4990 c3        1 MOL     -0.040369
     31 C11         6.0280   -2.9030   -2.1220 c         1 MOL      0.453420
     32 O6          6.9190   -2.8060   -2.9700 o         1 MOL     -0.530857
     33 C12         3.9910   -2.9190   -3.6150 c3        1 MOL      0.075294
     34 C13         3.2880   -1.5840   -3.3430 c         1 MOL      0.592902
     35 O7          3.4330   -1.0710   -2.1830 o         1 MOL     -0.644900
     36 O8          2.5260   -1.1980   -4.2680 o         1 MOL     -0.644900
     37 H13         3.8470   -3.3170   -0.5570 hn        1 MOL      0.106881
     38 H14         5.0940   -4.5480   -3.0160 h1        1 MOL      0.085974
     39 H15         3.2210   -3.6460   -3.8710 hc        1 MOL     -0.005604
     40 H16         4.5330   -2.8480   -4.5550 hc        1 MOL     -0.005604
     41 N4          6.1850   -2.3960   -0.8720 n         1 MOL     -0.269623
     42 C14         7.3170   -1.5230   -0.5930 c3        1 MOL     -0.398425
     43 C15         7.3200   -0.1950   -1.2460 c         1 MOL      0.628659
     44 O9          8.4020    0.3140   -1.3820 o         1 MOL     -0.619214
     45 H17         5.4680   -2.4020   -0.1620 hn        1 MOL      0.267120
     46 H18         8.2080   -2.0510   -0.9490 h1        1 MOL      0.164607
     47 H19         7.2100   -1.3050    0.4680 h1        1 MOL      0.164607
     48 N5          6.1940    0.3460   -1.7530 n         1 MOL     -0.167470
     49 C16         6.0930    1.6790   -2.4110 c3        1 MOL     -0.156374
     50 C17         6.1630    2.8670   -1.3700 c         1 MOL      0.418140
     51 O10         5.9410    3.9990   -1.7990 o         1 MOL     -0.490581
     52 C18         4.8600    1.7140   -3.4140 c3        1 MOL      0.076850
     53 C19         3.4650    1.7980   -2.8220 c         1 MOL      0.320257
     54 N6          2.4420    1.8110   -3.6320 n         1 MOL     -0.538219
     55 O11         3.3530    1.9970   -1.6210 o         1 MOL     -0.234701
     56 H20         5.3560   -0.2070   -1.6230 hn        1 MOL      0.063121
     57 H21         6.9310    1.8470   -3.0740 h1        1 MOL      0.126981
     58 H22         4.8760    0.9030   -4.1470 hc        1 MOL      0.014313
     59 H23         4.9980    2.5950   -4.0310 hc        1 MOL      0.014313
     60 H24         2.5310    1.8650   -4.6380 hn        1 MOL      0.318800
     61 H25         1.5040    1.9830   -3.2960 hn        1 MOL      0.318800
     62 N7          6.4700    2.7450   -0.0680 n         1 MOL     -0.180521
     63 C20         6.5470    3.8590    0.8920 c3        1 MOL     -0.356629
     64 C21         5.1400    4.5860    1.2420 c         1 MOL      0.549092
     65 O12         5.1640    5.5540    1.9520 o         1 MOL     -0.562524
     66 H26         6.8390    1.8610    0.2400 hn        1 MOL      0.228193
     67 H27         7.1770    4.6430    0.4700 h1        1 MOL      0.150728
     68 H28         6.9350    3.3990    1.7980 h1        1 MOL      0.150728
     69 N8          3.9990    4.0080    0.8350 n         1 MOL     -0.025155
     70 C22         2.6210    4.5270    1.1010 c3        1 MOL     -0.489759
     71 C23         1.5000    3.5120    1.2250 c         1 MOL      0.982659
     72 O13         1.5000    2.4800    0.5660 o         1 MOL     -0.691071
     73 C24         2.1790    5.4760   -0.0770 c3        1 MOL      0.454042
     74 C25         3.1000    6.6440   -0.3270 c3        1 MOL     -0.359985
     75 O14         2.2060    4.7760   -1.3400 oh        1 MOL     -0.574246
     76 H29         4.2180    3.1360    0.3730 hn        1 MOL     -0.020424
     77 H30         2.7080    5.1090    2.0270 h1        1 MOL      0.140757
     78 H31         1.1310    5.7130    0.1140 h1        1 MOL     -0.007315
     79 H32         2.5660    3.8920   -1.1630 ho        1 MOL      0.283533
     80 H33         3.2810    7.1920    0.6040 hc        1 MOL      0.090465
     81 H34         4.0280    6.3020   -0.7880 hc        1 MOL      0.090465
     82 H35         2.7080    7.4390   -0.9700 hc        1 MOL      0.090465
     83 N9          0.4730    3.8890    2.0090 n         1 MOL     -0.804805
     84 C26        -0.7510    3.0450    2.1550 c3        1 MOL     -0.023273
     85 C27        -1.5700    3.1310    0.8990 c         1 MOL      0.764820
     86 O15        -2.1720    4.1600    0.5930 o         1 MOL     -0.625897
     87 C28        -1.5890    3.3210    3.4700 c3        1 MOL      0.065450
     88 C29        -0.7180    3.9690    4.6400 c3        1 MOL      0.232570
     89 C30        -2.3440    1.9980    3.6960 c3        1 MOL     -0.273315
     90 C31        -1.4590    4.3350    5.8560 c3        1 MOL     -0.144827
     91 H36         0.4180    4.8480    2.2980 hn        1 MOL      0.356122
     92 H37        -0.3330    2.0400    2.2860 h1        1 MOL      0.094435
     93 H38        -2.3520    4.0800    3.2630 hc        1 MOL     -0.010013
     94 H39        -0.0560    4.7790    4.3420 hc        1 MOL     -0.041627
     95 H40        -0.0240    3.1990    4.9540 hc        1 MOL     -0.041627
     96 H41        -1.6270    1.2470    4.0040 hc        1 MOL      0.061008
     97 H42        -3.0910    2.1090    4.4930 hc        1 MOL      0.061008
     98 H43        -2.8910    1.6700    2.8170 hc        1 MOL      0.061008
     99 H44        -2.1370    3.5570    6.2290 hc        1 MOL      0.019181
    100 H45        -0.7000    4.4130    6.6360 hc        1 MOL      0.019181
    101 H46        -1.9690    5.2930    5.7760 hc        1 MOL      0.019181
    102 N10        -1.7090    2.0170    0.1850 n         1 MOL     -0.370111
    103 C32        -2.6410    1.8980   -0.9890 c3        1 MOL      0.004942
    104 C33        -4.0670    1.5290   -0.5870 c         1 MOL      0.434030
    105 O16        -4.3380    1.0990    0.5500 o         1 MOL     -0.378845
    106 C34        -2.0700    0.9160   -2.0500 c3        1 MOL     -0.165940
    107 C35        -0.5980    1.2700   -2.4010 c         1 MOL      0.705104
    108 O17        -0.4300    1.8460   -3.4810 o         1 MOL     -0.668511
    109 O18         0.3620    0.9220   -1.6840 o         1 MOL     -0.668511
    110 H47        -1.2240    1.1720    0.4620 hn        1 MOL      0.215491
    111 H48        -2.6850    2.9150   -1.3800 h1        1 MOL      0.087467
    112 H49        -2.7260    0.9910   -2.9170 hc        1 MOL      0.048632
    113 H50        -2.1220   -0.0500   -1.5610 hc        1 MOL      0.048632
    114 N11        -5.0700    1.6740   -1.4560 n         1 MOL     -0.597261
    115 C36        -6.4860    1.4230   -1.2090 c3        1 MOL      0.440307
    116 C37        -6.7450   -0.0770   -1.1060 c         1 MOL      0.367136
    117 O19        -7.3630   -0.3770   -0.0990 o         1 MOL     -0.535161
    118 C38        -7.4120    2.2470   -2.1780 c3        1 MOL     -0.303824
    119 C39        -8.8110    1.8980   -2.1020 ca        1 MOL      0.229234
    120 C40        -9.3270    0.7920   -2.8270 ca        1 MOL     -0.273738
    121 C41        -9.6180    2.6230   -1.2170 ca        1 MOL     -0.273738
    122 C42       -10.6780    0.4160   -2.6450 ca        1 MOL     -0.054622
    123 C43       -10.9850    2.2870   -1.1750 ca        1 MOL     -0.054622
    124 C44       -11.5460    1.1700   -1.8600 ca        1 MOL     -0.154678
    125 H51        -4.8350    2.1260   -2.3300 hn        1 MOL      0.303712
    126 H52        -6.7440    1.8280   -0.2320 h1        1 MOL      0.043840
    127 H53        -7.1160    2.0650   -3.2020 hc        1 MOL      0.076273
    128 H54        -7.3390    3.3110   -1.9500 hc        1 MOL      0.076273
    129 H55        -8.7110    0.2020   -3.4910 ha        1 MOL      0.155364
    130 H56        -9.2110    3.3870   -0.5770 ha        1 MOL      0.155364
    131 H57       -11.1150   -0.4050   -3.1990 ha        1 MOL      0.094758
    132 H58       -11.6290    2.8210   -0.4900 ha        1 MOL      0.094758
    133 H59       -12.5990    0.9290   -1.7490 ha        1 MOL      0.115144
    134 N12        -6.3410   -1.0960   -1.8650 n         1 MOL     -0.066067
    135 C45        -6.4770   -2.4820   -1.5680 c3        1 MOL      0.005942
    136 C46        -5.7190   -2.8900   -0.2560 c         1 MOL      0.282255
    137 O20        -6.0780   -3.8960    0.3280 o         1 MOL     -0.482077
    138 C47        -5.9050   -3.2300   -2.7540 c3        1 MOL      0.051337
    139 C48        -5.9380   -2.2670   -3.8930 c3        1 MOL     -0.168455
    140 C49        -5.6770   -0.9950   -3.1010 c3        1 MOL     -0.057206
    141 H60        -7.4950   -2.8720   -1.4940 h1        1 MOL      0.072741
    142 H61        -4.8580   -3.3910   -2.5100 hc        1 MOL      0.026703
    143 H62        -6.3930   -4.1840   -2.9390 hc        1 MOL      0.026703
    144 H63        -5.1020   -2.3860   -4.5830 hc        1 MOL      0.063700
    145 H64        -6.9110   -2.1890   -4.3870 hc        1 MOL      0.063700
    146 H65        -4.6330   -1.0740   -2.7860 h1        1 MOL      0.049975
    147 H66        -5.9060   -0.0860   -3.6650 h1        1 MOL      0.049975
    148 N13        -4.7020   -2.1250    0.2050 n         1 MOL     -0.036013
    149 C50        -4.0660   -2.2960    1.4990 c3        1 MOL     -0.042307
    150 C51        -4.9130   -1.7400    2.6570 c         1 MOL      0.333914
    151 O21        -5.1540   -2.4030    3.6720 o         1 MOL     -0.540073
    152 C52        -2.6200   -1.6990    1.5360 c3        1 MOL      0.025088
    153 C53        -1.6210   -2.3530    0.5860 c3        1 MOL     -0.495138
    154 C54        -0.2250   -1.6990    0.5210 c         1 MOL      0.629156
    155 O22         0.6050   -2.1070   -0.3360 o         1 MOL     -0.652081
    156 O23         0.0920   -0.7050    1.2400 o         1 MOL     -0.652081
    157 H67        -4.5000   -1.2540   -0.2600 hn        1 MOL      0.087097
    158 H68        -3.9270   -3.3560    1.7060 h1        1 MOL      0.114488
    159 H69        -2.2710   -1.6230    2.5620 hc        1 MOL      0.044322
    160 H70        -2.6890   -0.6600    1.2180 hc        1 MOL      0.044322
    161 H71        -1.8890   -2.2340   -0.4570 hc        1 MOL      0.160766
    162 H72        -1.4880   -3.3860    0.9030 hc        1 MOL      0.160766
    163 N14        -5.6410   -0.6340    2.4130 n         1 MOL      0.112828
    164 C55        -6.5410    0.0230    3.3540 c3        1 MOL     -0.291568
    165 H73        -7.5440   -0.3910    3.2470 h1        1 MOL      0.094294
    166 H74        -6.1880   -0.1410    4.3720 h1        1 MOL      0.094294
    167 H75        -6.5670    1.0930    3.1460 h1        1 MOL      0.094294
    168 H76        -5.4620   -0.2130    1.5150 hn        1 MOL     -0.009323
    169 Ca1         2.2390    0.0400   -0.2320 Ca        1 MOL      1.598772
    170 O24         4.0510    1.1910    1.2470 oh        1 MOL     -0.769057
    171 H77         3.6340    1.2420    2.1020 ho        1 MOL      0.389670
    172 H78         4.9660    0.9790    1.4440 ho        1 MOL      0.389670
    173 O25         2.0660    0.4740    2.8230 oh        1 MOL     -0.769057
    174 H79         2.3350    0.3960    3.7410 ho        1 MOL      0.389670
    175 H80         1.2880   -0.0830    2.7500 ho        1 MOL      0.389670
@<TRIPOS>BOND
     1    1    2 1   
     2    1    4 1   
     3    1    5 1   
     4    1    6 1   
     5    2    3 2   
     6    2    7 1   
     7    7    8 1   
     8    7   15 1   
     9    8    9 1   
    10    8   11 1   
    11    8   16 1   
    12    9   10 2   
    13    9   19 1   
    14   11   12 1   
    15   11   17 1   
    16   11   18 1   
    17   12   13 1   
    18   12   14 1   
    19   19   20 1   
    20   19   24 1   
    21   20   21 1   
    22   20   23 1   
    23   20   25 1   
    24   21   22 2   
    25   21   29 1   
    26   23   26 1   
    27   23   27 1   
    28   23   28 1   
    29   29   30 1   
    30   29   37 1   
    31   30   31 1   
    32   30   33 1   
    33   30   38 1   
    34   31   32 2   
    35   31   41 1   
    36   33   34 1   
    37   33   39 1   
    38   33   40 1   
    39   34   35 1   
    40   34   36 1   
    41   41   42 1   
    42   41   45 1   
    43   42   43 1   
    44   42   46 1   
    45   42   47 1   
    46   43   44 2   
    47   43   48 1   
    48   48   49 1   
    49   48   56 1   
    50   49   50 1   
    51   49   52 1   
    52   49   57 1   
    53   50   51 2   
    54   50   62 1   
    55   52   53 1   
    56   52   58 1   
    57   52   59 1   
    58   53   54 1   
    59   53   55 2   
    60   54   60 1   
    61   54   61 1   
    62   62   63 1   
    63   62   66 1   
    64   63   64 1   
    65   63   67 1   
    66   63   68 1   
    67   64   65 2   
    68   64   69 1   
    69   69   70 1   
    70   69   76 1   
    71   70   71 1   
    72   70   73 1   
    73   70   77 1   
    74   71   72 2   
    75   71   83 1   
    76   73   74 1   
    77   73   75 1   
    78   73   78 1   
    79   74   80 1   
    80   74   81 1   
    81   74   82 1   
    82   75   79 1   
    83   83   84 1   
    84   83   91 1   
    85   84   85 1   
    86   84   87 1   
    87   84   92 1   
    88   85   86 2   
    89   85  102 1   
    90   87   88 1   
    91   87   89 1   
    92   87   93 1   
    93   88   90 1   
    94   88   94 1   
    95   88   95 1   
    96   89   96 1   
    97   89   97 1   
    98   89   98 1   
    99   90   99 1   
   100   90  100 1   
   101   90  101 1   
   102  102  103 1   
   103  102  110 1   
   104  103  104 1   
   105  103  106 1   
   106  103  111 1   
   107  104  105 2   
   108  104  114 1   
   109  106  107 1   
   110  106  112 1   
   111  106  113 1   
   112  107  108 1   
   113  107  109 1   
   114  114  115 1   
   115  114  125 1   
   116  115  116 1   
   117  115  118 1   
   118  115  126 1   
   119  116  117 2   
   120  116  134 1   
   121  118  119 1   
   122  118  127 1   
   123  118  128 1   
   124  119  120 ar  
   125  119  121 ar  
   126  120  122 ar  
   127  120  129 1   
   128  121  123 ar  
   129  121  130 1   
   130  122  124 ar  
   131  122  131 1   
   132  123  124 ar  
   133  123  132 1   
   134  124  133 1   
   135  134  135 1   
   136  134  140 1   
   137  135  136 1   
   138  135  138 1   
   139  135  141 1   
   140  136  137 2   
   141  136  148 1   
   142  138  139 1   
   143  138  142 1   
   144  138  143 1   
   145  139  140 1   
   146  139  144 1   
   147  139  145 1   
   148  140  146 1   
   149  140  147 1   
   150  148  149 1   
   151  148  157 1   
   152  149  150 1   
   153  149  152 1   
   154  149  158 1   
   155  150  151 2   
   156  150  163 1   
   157  152  153 1   
   158  152  159 1   
   159  152  160 1   
   160  153  154 1   
   161  153  161 1   
   162  153  162 1   
   163  154  155 1   
   164  154  156 1   
   165  163  164 1   
   166  163  168 1   
   167  164  165 1   
   168  164  166 1   
   169  164  167 1   
   170  170  171 1   
   171  170  172 1   
   172  173  174 1   
   173  173  175 1   
@<TRIPOS>SUBSTRUCTURE
     1 MOL         1 TEMP              0 ****  ****    0 ROOT
