@<TRIPOS>MOLECULE
MOL
  189   185     1     0     0
SMALL
resp


@<TRIPOS>ATOM
      1 C1          0.1790    3.7420   -5.3430 c3        1 MOL     -0.441870
      2 C2          0.4920    3.0370   -4.0490 c         1 MOL      0.875122
      3 O1         -0.3920    3.0470   -3.1790 o         1 MOL     -0.659740
      4 H1         -0.6850    4.3910   -5.2030 hc        1 MOL      0.107941
      5 H2          1.0370    4.3410   -5.6480 hc        1 MOL      0.107941
      6 H3         -0.0420    3.0060   -6.1140 hc        1 MOL      0.107941
      7 N1          1.7230    2.5570   -3.7370 n         1 MOL     -0.803517
      8 C3          2.2630    2.2360   -2.4430 c3        1 MOL      0.188552
      9 C4          2.5560    3.5590   -1.7060 c         1 MOL      0.548013
     10 O2          3.3180    4.4220   -2.1940 o         1 MOL     -0.583108
     11 C5          3.4970    1.3470   -2.6590 c3        1 MOL     -0.157845
     12 C6          4.0340    0.7660   -1.3610 c         1 MOL      0.687508
     13 O3          3.2280    0.5100   -0.3930 o         1 MOL     -0.669785
     14 O4          5.2720    0.4640   -1.1810 o         1 MOL     -0.669785
     15 H4          2.3720    2.5800   -4.5220 hn        1 MOL      0.359215
     16 H5          1.6220    1.5990   -1.8260 h1        1 MOL      0.002054
     17 H6          4.2650    1.9650   -3.1260 hc        1 MOL      0.048409
     18 H7          3.2240    0.4750   -3.2680 hc        1 MOL      0.048409
     19 N2          2.0100    3.6940   -0.5240 n         1 MOL     -0.222891
     20 C7          2.2050    4.9020    0.3460 c3        1 MOL     -0.130079
     21 C8          2.9770    4.5980    1.5630 c         1 MOL      0.642520
     22 O5          3.3770    5.5400    2.1880 o         1 MOL     -0.582634
     23 C9          0.7770    5.4070    0.8140 c3        1 MOL     -0.021007
     24 C10        -0.2190    5.6270   -0.2920 c3        1 MOL      0.045308
     25 C11         0.1760    6.7480   -1.2510 c3        1 MOL     -0.091399
     26 C12        -0.9750    7.2430   -2.1340 c3        1 MOL      0.207823
     27 N3         -0.5790    8.2080   -3.1850 n4        1 MOL     -0.374201
     28 H8          1.3230    2.9920   -0.2860 hn        1 MOL      0.210854
     29 H9          2.8270    5.6680   -0.1250 h1        1 MOL      0.097435
     30 H10         0.7580    6.2650    1.4890 hc        1 MOL      0.045050
     31 H11         0.3840    4.5980    1.4290 hc        1 MOL      0.045050
     32 H12        -1.1340    5.9610    0.2110 hc        1 MOL      0.006193
     33 H13        -0.5290    4.6920   -0.7620 hc        1 MOL      0.006193
     34 H14         0.9290    6.3190   -1.8990 hc        1 MOL      0.024419
     35 H15         0.5170    7.6070   -0.6720 hc        1 MOL      0.024419
     36 H16        -1.7550    7.6960   -1.5250 hx        1 MOL      0.037102
     37 H17        -1.4700    6.4040   -2.6220 hx        1 MOL      0.037102
     38 H18        -0.3230    7.6940   -4.0190 hn        1 MOL      0.321897
     39 H19        -1.2840    8.8580   -3.4840 hn        1 MOL      0.321897
     40 H20         0.2300    8.7090   -2.8450 hn        1 MOL      0.321897
     41 N4          3.2650    3.3210    1.9210 n         1 MOL     -0.487659
     42 C13         4.0640    2.9630    3.1130 c3        1 MOL      0.131214
     43 C14         5.2520    1.9910    2.8860 c         1 MOL      0.505165
     44 O6          5.6530    1.3120    3.8420 o         1 MOL     -0.499309
     45 C15         2.9980    2.6310    4.2610 c3        1 MOL     -0.217759
     46 C16         1.7890    1.7160    3.8330 c         1 MOL      0.951252
     47 O7          0.7340    1.6930    4.5590 o         1 MOL     -0.827276
     48 O8          1.9010    1.0040    2.8620 o         1 MOL     -0.827276
     49 H21         2.9150    2.6350    1.2660 hn        1 MOL      0.170122
     50 H22         4.5820    3.8380    3.4960 h1        1 MOL      0.070419
     51 H23         2.5670    3.5440    4.6920 hc        1 MOL      0.042942
     52 H24         3.5190    2.0420    5.0210 hc        1 MOL      0.042942
     53 N5          5.8670    2.0040    1.6740 n         1 MOL     -0.386997
     54 C17         7.2330    1.5600    1.4250 c3        1 MOL     -0.304781
     55 C18         7.4340    0.0730    1.3580 c         1 MOL      0.567001
     56 O9          8.5990   -0.3290    1.2390 o         1 MOL     -0.602428
     57 H25         5.3820    2.4720    0.9230 hn        1 MOL      0.283390
     58 H26         7.9220    1.8670    2.2150 h1        1 MOL      0.156840
     59 H27         7.5660    1.9860    0.4740 h1        1 MOL      0.156840
     60 N6          6.4320   -0.7560    1.4450 n         1 MOL     -0.162765
     61 C19         6.5590   -2.2160    1.4890 c3        1 MOL     -0.151296
     62 C20         6.6030   -2.9010    0.0460 c         1 MOL      0.433310
     63 O10         6.8760   -4.1210   -0.0880 o         1 MOL     -0.535671
     64 C21         5.4970   -2.8910    2.4590 c3        1 MOL     -0.129885
     65 C22         4.0810   -2.3720    2.0780 c         1 MOL      0.720157
     66 O11         3.7000   -2.4050    0.9490 o         1 MOL     -0.744465
     67 O12         3.4150   -1.7880    2.9310 o         1 MOL     -0.744465
     68 H28         5.5430   -0.3590    1.1660 hn        1 MOL      0.207225
     69 H29         7.5150   -2.5240    1.9120 h1        1 MOL      0.149784
     70 H30         5.6950   -2.7650    3.5160 hc        1 MOL      0.050750
     71 H31         5.4500   -3.9650    2.2980 hc        1 MOL      0.050750
     72 N7          6.2980   -2.1620   -1.0390 n         1 MOL     -0.178932
     73 C23         6.2280   -2.7140   -2.4180 c3        1 MOL     -0.242576
     74 C24         4.9650   -3.5400   -2.7630 c         1 MOL      0.616806
     75 O13         4.9790   -4.2930   -3.7160 o         1 MOL     -0.580726
     76 H32         5.9340   -1.2280   -0.9460 hn        1 MOL      0.221172
     77 H33         7.0590   -3.4040   -2.5770 h1        1 MOL      0.107955
     78 H34         6.1860   -1.9100   -3.1480 h1        1 MOL      0.107955
     79 N8          3.9960   -3.3940   -1.9050 n         1 MOL     -0.254561
     80 C25         2.6330   -4.0290   -2.0220 c3        1 MOL     -0.216081
     81 C26         1.5020   -3.0690   -1.7810 c         1 MOL      0.838602
     82 O14         1.7030   -1.9600   -1.2780 o         1 MOL     -0.721170
     83 C27         2.6080   -5.3290   -1.2240 c3        1 MOL      0.383809
     84 C28         3.3550   -6.4880   -1.8260 c3        1 MOL     -0.384751
     85 O15         3.2330   -5.1050   -0.0310 oh        1 MOL     -0.584657
     86 H35         4.2050   -2.9610   -1.0210 hn        1 MOL      0.230290
     87 H36         2.5490   -4.3840   -3.0500 h1        1 MOL      0.081623
     88 H37         1.5760   -5.6450   -1.0580 h1        1 MOL      0.027981
     89 H38         3.9450   -4.5010   -0.2390 ho        1 MOL      0.374670
     90 H39         2.8860   -6.9490   -2.7000 hc        1 MOL      0.098726
     91 H40         4.4150   -6.2540   -1.9250 hc        1 MOL      0.098726
     92 H41         3.2760   -7.3390   -1.1570 hc        1 MOL      0.098726
     93 N9          0.2560   -3.4740   -2.1410 n         1 MOL     -0.603828
     94 C29        -0.9870   -2.6950   -2.1530 c3        1 MOL      0.158645
     95 C30        -2.0500   -3.3300   -1.2710 c         1 MOL      0.522796
     96 O16        -2.2250   -4.5170   -1.3940 o         1 MOL     -0.549137
     97 C31        -1.4320   -2.5900   -3.6300 c3        1 MOL      0.032591
     98 C32        -0.4410   -1.9290   -4.5810 c3        1 MOL     -0.044173
     99 C33        -2.7880   -1.9350   -3.8440 c3        1 MOL     -0.099707
    100 C34        -0.1220   -0.4210   -4.3030 c3        1 MOL      0.012336
    101 H42         0.1140   -4.4260   -2.4550 hn        1 MOL      0.272812
    102 H43        -0.6960   -1.7260   -1.7470 h1        1 MOL      0.014749
    103 H44        -1.5070   -3.5700   -4.1110 hc        1 MOL      0.027229
    104 H45        -0.7520   -2.0210   -5.6150 hc        1 MOL      0.005415
    105 H46         0.5440   -2.3870   -4.5730 hc        1 MOL      0.005415
    106 H47        -2.9040   -0.8840   -3.5940 hc        1 MOL      0.013319
    107 H48        -3.1010   -1.9940   -4.8830 hc        1 MOL      0.013319
    108 H49        -3.5400   -2.5490   -3.3550 hc        1 MOL      0.013319
    109 H50         0.5560   -0.2190   -3.4740 hc        1 MOL      0.021212
    110 H51         0.2210    0.0330   -5.2330 hc        1 MOL      0.021212
    111 H52        -1.0580    0.1200   -4.1420 hc        1 MOL      0.021212
    112 N10        -2.6340   -2.5450   -0.3700 n         1 MOL     -0.152971
    113 C35        -3.6640   -2.9940    0.4930 c3        1 MOL     -0.018821
    114 C36        -5.0160   -2.4550   -0.0020 c         1 MOL      0.416628
    115 O17        -5.0740   -1.6170   -0.8970 o         1 MOL     -0.346493
    116 C37        -3.4370   -2.4340    1.9240 c3        1 MOL      0.090376
    117 C38        -2.4600   -3.3380    2.6120 c3        1 MOL     -0.066858
    118 O18        -2.9830   -1.1280    1.9500 oh        1 MOL     -0.417136
    119 H53        -2.4030   -1.5630   -0.3060 hn        1 MOL      0.050875
    120 H54        -3.7360   -4.0780    0.4680 h1        1 MOL      0.075990
    121 H55        -4.3590   -2.4530    2.4990 h1        1 MOL      0.021314
    122 H56        -2.0770   -1.1130    1.6100 ho        1 MOL      0.316405
    123 H57        -1.4290   -3.2830    2.2710 hc        1 MOL      0.028106
    124 H58        -2.4500   -3.1750    3.6920 hc        1 MOL      0.028106
    125 H59        -2.8430   -4.3540    2.5430 hc        1 MOL      0.028106
    126 N11        -6.1970   -2.7270    0.6400 n         1 MOL     -0.410068
    127 C39        -7.5270   -2.1610    0.3720 c3        1 MOL     -0.158852
    128 C40        -7.6240   -0.6430    0.4280 c         1 MOL      0.380191
    129 O19        -8.1640   -0.0650   -0.5210 o         1 MOL     -0.486332
    130 C41        -8.5940   -2.7880    1.1940 c3        1 MOL      0.225257
    131 C42        -8.7850   -4.2690    0.8870 c3        1 MOL     -0.284783
    132 O20        -8.3370   -2.6920    2.5780 oh        1 MOL     -0.589367
    133 H60        -6.0770   -3.2600    1.4940 hn        1 MOL      0.304013
    134 H61        -7.7490   -2.3430   -0.6720 h1        1 MOL      0.161746
    135 H62        -9.5020   -2.2130    1.0160 h1        1 MOL      0.074227
    136 H63        -8.8300   -1.9400    2.9110 ho        1 MOL      0.390745
    137 H64        -7.9730   -4.9380    1.1660 hc        1 MOL      0.093689
    138 H65        -9.7080   -4.6020    1.3710 hc        1 MOL      0.093689
    139 H66        -9.0480   -4.4930   -0.1530 hc        1 MOL      0.093689
    140 N12        -6.9610   -0.0210    1.4180 n         1 MOL     -0.172025
    141 C43        -6.8730    1.4210    1.6390 c3        1 MOL     -0.058072
    142 C44        -6.0950    2.0830    0.4890 c         1 MOL      0.364180
    143 O21        -6.1420    3.3400    0.3320 o         1 MOL     -0.514969
    144 C45        -6.1840    1.8300    2.9860 c3        1 MOL     -0.262733
    145 C46        -4.8610    1.0480    3.2250 c3        1 MOL      0.403828
    146 C47        -4.0960    1.4780    4.4940 c3        1 MOL     -0.264157
    147 C48        -2.8410    0.6660    4.7710 c3        1 MOL     -0.074645
    148 N13        -3.0750   -0.6650    5.4530 n4        1 MOL     -0.472243
    149 H67        -6.5530   -0.6650    2.0770 hn        1 MOL      0.136525
    150 H68        -7.8760    1.8170    1.4800 h1        1 MOL      0.132153
    151 H69        -6.8900    1.6030    3.7850 hc        1 MOL      0.083490
    152 H70        -5.9490    2.8950    2.9310 hc        1 MOL      0.083490
    153 H71        -4.1870    1.1560    2.3680 hc        1 MOL     -0.066566
    154 H72        -5.1170    0.0000    3.3810 hc        1 MOL     -0.066566
    155 H73        -4.7520    1.3700    5.3650 hc        1 MOL      0.088130
    156 H74        -3.8980    2.5520    4.3840 hc        1 MOL      0.088130
    157 H75        -2.1500    1.2880    5.3490 hx        1 MOL      0.177270
    158 H76        -2.2320    0.5150    3.8760 hx        1 MOL      0.177270
    159 H77        -3.2810   -0.5050    6.4250 hn        1 MOL      0.343340
    160 H78        -3.8330   -1.2000    5.0480 hn        1 MOL      0.343340
    161 H79        -2.2490   -1.2400    5.4960 hn        1 MOL      0.343340
    162 N14        -5.1880    1.3520   -0.1900 n         1 MOL     -0.110834
    163 C49        -4.3450    1.7930   -1.2780 c3        1 MOL     -0.114534
    164 C50        -4.9740    1.5920   -2.6520 c         1 MOL      0.531015
    165 O22        -4.7190    2.3810   -3.5350 o         1 MOL     -0.560554
    166 C51        -2.9690    1.1330   -1.2380 c3        1 MOL      0.447155
    167 C52        -2.1260    1.6270   -0.1020 c3        1 MOL     -0.020706
    168 C53        -0.8290    0.8720    0.0520 c         1 MOL      0.447668
    169 O23        -0.8420   -0.3950    0.2720 o         1 MOL     -0.550974
    170 O24         0.2780    1.4470    0.2630 o         1 MOL     -0.550974
    171 H80        -5.0120    0.4500    0.2150 hn        1 MOL      0.070622
    172 H81        -4.1320    2.8650   -1.2830 h1        1 MOL      0.050511
    173 H82        -2.4030    1.4630   -2.1080 hc        1 MOL     -0.077626
    174 H83        -3.0230    0.0400   -1.3460 hc        1 MOL     -0.077626
    175 H84        -2.7510    1.5400    0.7850 hc        1 MOL      0.000114
    176 H85        -2.0130    2.7090   -0.2050 hc        1 MOL      0.000114
    177 N15        -5.6840    0.4700   -2.8050 n         1 MOL     -0.205009
    178 C54        -6.3040    0.0020   -4.0570 c3        1 MOL     -0.337643
    179 H86        -6.9950    0.7600   -4.4250 h1        1 MOL      0.129056
    180 H87        -5.5290   -0.1750   -4.8030 h1        1 MOL      0.129056
    181 H88        -6.8470   -0.9240   -3.8690 h1        1 MOL      0.129056
    182 H89        -5.8570   -0.1170   -1.9990 hn        1 MOL      0.183474
    183 Ca1         1.6340   -0.6940    1.0550 Ca        1 MOL      1.759322
    184 O25         0.1400   -0.8770    3.4750 oh        1 MOL     -0.897272
    185 H90         0.8020   -0.1960    3.5810 ho        1 MOL      0.412771
    186 H91        -0.0000   -1.2280    4.3490 ho        1 MOL      0.412771
    187 O26         0.9760   -3.3610    1.4380 oh        1 MOL     -0.897272
    188 H92         1.8030   -3.7480    1.1630 ho        1 MOL      0.412771
    189 H93         0.7980   -3.7670    2.2890 ho        1 MOL      0.412771
@<TRIPOS>BOND
     1    1    2 1   
     2    1    4 1   
     3    1    5 1   
     4    1    6 1   
     5    2    3 2   
     6    2    7 1   
     7    7    8 1   
     8    7   15 1   
     9    8    9 1   
    10    8   11 1   
    11    8   16 1   
    12    9   10 2   
    13    9   19 1   
    14   11   12 1   
    15   11   17 1   
    16   11   18 1   
    17   12   13 1   
    18   12   14 1   
    19   19   20 1   
    20   19   28 1   
    21   20   21 1   
    22   20   23 1   
    23   20   29 1   
    24   21   22 2   
    25   21   41 1   
    26   23   24 1   
    27   23   30 1   
    28   23   31 1   
    29   24   25 1   
    30   24   32 1   
    31   24   33 1   
    32   25   26 1   
    33   25   34 1   
    34   25   35 1   
    35   26   27 1   
    36   26   36 1   
    37   26   37 1   
    38   27   38 1   
    39   27   39 1   
    40   27   40 1   
    41   41   42 1   
    42   41   49 1   
    43   42   43 1   
    44   42   45 1   
    45   42   50 1   
    46   43   44 2   
    47   43   53 1   
    48   45   46 1   
    49   45   51 1   
    50   45   52 1   
    51   46   47 1   
    52   46   48 1   
    53   53   54 1   
    54   53   57 1   
    55   54   55 1   
    56   54   58 1   
    57   54   59 1   
    58   55   56 2   
    59   55   60 1   
    60   60   61 1   
    61   60   68 1   
    62   61   62 1   
    63   61   64 1   
    64   61   69 1   
    65   62   63 2   
    66   62   72 1   
    67   64   65 1   
    68   64   70 1   
    69   64   71 1   
    70   65   66 1   
    71   65   67 1   
    72   72   73 1   
    73   72   76 1   
    74   73   74 1   
    75   73   77 1   
    76   73   78 1   
    77   74   75 2   
    78   74   79 1   
    79   79   80 1   
    80   79   86 1   
    81   80   81 1   
    82   80   83 1   
    83   80   87 1   
    84   81   82 2   
    85   81   93 1   
    86   83   84 1   
    87   83   85 1   
    88   83   88 1   
    89   84   90 1   
    90   84   91 1   
    91   84   92 1   
    92   85   89 1   
    93   93   94 1   
    94   93  101 1   
    95   94   95 1   
    96   94   97 1   
    97   94  102 1   
    98   95   96 2   
    99   95  112 1   
   100   97   98 1   
   101   97   99 1   
   102   97  103 1   
   103   98  100 1   
   104   98  104 1   
   105   98  105 1   
   106   99  106 1   
   107   99  107 1   
   108   99  108 1   
   109  100  109 1   
   110  100  110 1   
   111  100  111 1   
   112  112  113 1   
   113  112  119 1   
   114  113  114 1   
   115  113  116 1   
   116  113  120 1   
   117  114  115 2   
   118  114  126 1   
   119  116  117 1   
   120  116  118 1   
   121  116  121 1   
   122  117  123 1   
   123  117  124 1   
   124  117  125 1   
   125  118  122 1   
   126  126  127 1   
   127  126  133 1   
   128  127  128 1   
   129  127  130 1   
   130  127  134 1   
   131  128  129 2   
   132  128  140 1   
   133  130  131 1   
   134  130  132 1   
   135  130  135 1   
   136  131  137 1   
   137  131  138 1   
   138  131  139 1   
   139  132  136 1   
   140  140  141 1   
   141  140  149 1   
   142  141  142 1   
   143  141  144 1   
   144  141  150 1   
   145  142  143 2   
   146  142  162 1   
   147  144  145 1   
   148  144  151 1   
   149  144  152 1   
   150  145  146 1   
   151  145  153 1   
   152  145  154 1   
   153  146  147 1   
   154  146  155 1   
   155  146  156 1   
   156  147  148 1   
   157  147  157 1   
   158  147  158 1   
   159  148  159 1   
   160  148  160 1   
   161  148  161 1   
   162  162  163 1   
   163  162  171 1   
   164  163  164 1   
   165  163  166 1   
   166  163  172 1   
   167  164  165 2   
   168  164  177 1   
   169  166  167 1   
   170  166  173 1   
   171  166  174 1   
   172  167  168 1   
   173  167  175 1   
   174  167  176 1   
   175  168  169 1   
   176  168  170 1   
   177  177  178 1   
   178  177  182 1   
   179  178  179 1   
   180  178  180 1   
   181  178  181 1   
   182  184  185 1   
   183  184  186 1   
   184  187  188 1   
   185  187  189 1   
@<TRIPOS>SUBSTRUCTURE
     1 MOL         1 TEMP              0 ****  ****    0 ROOT
