@<TRIPOS>MOLECULE
MOL
  189   185     1     0     0
SMALL
resp


@<TRIPOS>ATOM
      1 C1         -0.1890    1.8290    6.2230 c3        1 MOL     -0.210042
      2 C2         -0.4240    1.6060    4.7030 c         1 MOL      0.611789
      3 O1          0.3920    2.1330    3.9820 o         1 MOL     -0.584523
      4 H1         -1.1110    2.1820    6.6840 hc        1 MOL      0.053732
      5 H2          0.1120    0.8890    6.6860 hc        1 MOL      0.053732
      6 H3          0.5960    2.5720    6.3650 hc        1 MOL      0.053732
      7 N1         -1.4450    0.8490    4.2360 n         1 MOL     -0.466720
      8 C3         -2.0800    0.9780    2.9420 c3        1 MOL      0.146266
      9 C4         -2.5970    2.4420    2.5610 c         1 MOL      0.435138
     10 O2         -3.6350    2.9130    3.0030 o         1 MOL     -0.499637
     11 C5         -3.1720   -0.0690    2.8850 c3        1 MOL     -0.331391
     12 C6         -3.8710   -0.0950    1.4840 c         1 MOL      0.681166
     13 O3         -3.1850    0.3160    0.5040 o         1 MOL     -0.631923
     14 O4         -5.0160   -0.4860    1.3790 o         1 MOL     -0.631923
     15 H4         -1.9570    0.3950    4.9810 hn        1 MOL      0.278815
     16 H5         -1.3280    0.7120    2.1970 h1        1 MOL      0.015902
     17 H6         -3.8390    0.2810    3.6650 hc        1 MOL      0.077565
     18 H7         -2.8340   -1.0850    3.1140 hc        1 MOL      0.077565
     19 N2         -1.7530    3.1750    1.7770 n         1 MOL     -0.235363
     20 C7         -1.9660    4.5870    1.4750 c3        1 MOL      0.006385
     21 C8         -3.0150    4.9020    0.4120 c         1 MOL      0.277468
     22 O5         -3.7960    5.8670    0.5840 o         1 MOL     -0.543893
     23 C9         -0.6440    5.2150    1.2540 c3        1 MOL     -0.066666
     24 C10        -0.7530    6.6380    0.6430 c3        1 MOL     -0.022049
     25 C11         0.6180    7.3060    0.6750 c3        1 MOL     -0.062963
     26 C12         0.5180    8.8270    0.3100 c3        1 MOL      0.160677
     27 N3          1.7670    9.4990    0.7340 n4        1 MOL     -0.596096
     28 H8         -0.9360    2.7270    1.3960 hn        1 MOL      0.241095
     29 H9         -2.2270    5.0240    2.4390 h1        1 MOL      0.090379
     30 H10         0.0140    4.6780    0.5810 hc        1 MOL      0.045958
     31 H11        -0.0330    5.1610    2.1580 hc        1 MOL      0.045958
     32 H12        -1.3680    7.3330    1.2150 hc        1 MOL      0.039624
     33 H13        -1.0250    6.6720   -0.4220 hc        1 MOL      0.039624
     34 H14         1.2570    6.7070    0.0310 hc        1 MOL      0.034299
     35 H15         1.0800    7.3640    1.6570 hc        1 MOL      0.034299
     36 H16        -0.2820    9.3550    0.8180 hx        1 MOL      0.065672
     37 H17         0.3040    9.0000   -0.7470 hx        1 MOL      0.065672
     38 H18         2.3600    9.3890   -0.0780 hn        1 MOL      0.382934
     39 H19         1.5720   10.4840    0.8500 hn        1 MOL      0.382934
     40 H20         2.1260    9.2460    1.6460 hn        1 MOL      0.382934
     41 N4         -3.0730    4.1680   -0.6750 n         1 MOL     -0.079421
     42 C13        -3.9830    4.2970   -1.7860 c3        1 MOL      0.014457
     43 C14        -5.3350    3.4940   -1.5970 c         1 MOL      0.400222
     44 O6         -6.2700    3.7370   -2.3450 o         1 MOL     -0.519769
     45 C15        -3.2330    3.9080   -3.0820 c3        1 MOL     -0.226270
     46 C16        -2.6300    2.5130   -3.1570 c         1 MOL      0.804558
     47 O7         -1.7890    2.3140   -4.0870 o         1 MOL     -0.724548
     48 O8         -2.9780    1.5340   -2.4500 o         1 MOL     -0.724548
     49 H21        -2.4570    3.3590   -0.6800 hn        1 MOL      0.074644
     50 H22        -4.1560    5.3690   -1.9560 h1        1 MOL      0.076201
     51 H23        -2.4230    4.6290   -3.1850 hc        1 MOL      0.054344
     52 H24        -3.9000    4.0160   -3.9370 hc        1 MOL      0.054344
     53 N5         -5.3300    2.5940   -0.5980 n         1 MOL     -0.124820
     54 C17        -6.5990    2.0750   -0.0140 c3        1 MOL     -0.270377
     55 C18        -7.1930    0.8430   -0.7270 c         1 MOL      0.588796
     56 O9         -8.3840    0.5840   -0.6920 o         1 MOL     -0.607494
     57 H25        -4.4470    2.3900   -0.1640 hn        1 MOL      0.242897
     58 H26        -7.3710    2.8460   -0.0460 h1        1 MOL      0.118366
     59 H27        -6.3670    1.8610    1.0320 h1        1 MOL      0.118366
     60 N6         -6.3460    0.0780   -1.3700 n         1 MOL     -0.220444
     61 C19        -6.7380   -1.1400   -2.0830 c3        1 MOL     -0.061330
     62 C20        -6.8650   -2.3830   -1.1130 c         1 MOL      0.459754
     63 O10        -7.0360   -3.5040   -1.6060 o         1 MOL     -0.543270
     64 C21        -5.7540   -1.3540   -3.2670 c3        1 MOL     -0.195204
     65 C22        -4.2780   -1.4580   -2.9280 c         1 MOL      0.699832
     66 O11        -3.9730   -1.9160   -1.8000 o         1 MOL     -0.646730
     67 O12        -3.3430   -1.1750   -3.6900 o         1 MOL     -0.646730
     68 H28        -5.3990    0.4200   -1.4350 hn        1 MOL      0.164267
     69 H29        -7.7250   -0.9960   -2.5410 h1        1 MOL      0.126118
     70 H30        -5.9330   -0.5840   -4.0100 hc        1 MOL      0.069185
     71 H31        -5.9480   -2.3070   -3.7620 hc        1 MOL      0.069185
     72 N7         -6.8570   -2.2520    0.2070 n         1 MOL     -0.289089
     73 C23        -6.8580   -3.4090    1.1450 c3        1 MOL     -0.206647
     74 C24        -5.4440   -3.9450    1.3880 c         1 MOL      0.531469
     75 O13        -5.3240   -4.9850    2.0710 o         1 MOL     -0.591227
     76 H32        -6.6170   -1.3490    0.5950 hn        1 MOL      0.285981
     77 H33        -7.5400   -4.1870    0.8020 h1        1 MOL      0.132308
     78 H34        -7.1530   -3.0300    2.1220 h1        1 MOL      0.132308
     79 N8         -4.3670   -3.4640    0.7690 n         1 MOL     -0.160352
     80 C25        -3.1370   -4.2710    0.6690 c3        1 MOL     -0.091339
     81 C26        -1.8520   -3.5220    0.7320 c         1 MOL      0.656148
     82 O14        -1.7320   -2.3570    0.3840 o         1 MOL     -0.701273
     83 C27        -3.0210   -5.1040   -0.6010 c3        1 MOL      0.399602
     84 C28        -4.1320   -6.0940   -0.7910 c3        1 MOL     -0.521128
     85 O15        -2.9600   -4.4000   -1.8690 oh        1 MOL     -0.636396
     86 H35        -4.5510   -2.6400    0.2090 hn        1 MOL      0.067319
     87 H36        -3.0840   -4.9630    1.5080 h1        1 MOL      0.071909
     88 H37        -2.0970   -5.6810   -0.5240 h1        1 MOL      0.005504
     89 H38        -3.4910   -3.6150   -1.7760 ho        1 MOL      0.429379
     90 H39        -4.2880   -6.6930    0.0990 hc        1 MOL      0.139166
     91 H40        -5.0400   -5.5660   -1.0780 hc        1 MOL      0.139166
     92 H41        -3.9340   -6.6730   -1.6850 hc        1 MOL      0.139166
     93 N9         -0.7860   -4.2110    1.1350 n         1 MOL     -0.539195
     94 C29         0.5410   -3.6440    1.3880 c3        1 MOL      0.177572
     95 C30         1.5540   -3.9970    0.3400 c         1 MOL      0.393354
     96 O16         1.8110   -5.1800    0.1760 o         1 MOL     -0.537456
     97 C31         1.0530   -4.0730    2.7590 c3        1 MOL      0.001466
     98 C32         0.2870   -3.3900    3.9060 c3        1 MOL     -0.102200
     99 C33         2.5920   -3.8530    3.0780 c3        1 MOL     -0.118574
    100 C34         0.4870   -1.9050    4.1370 c3        1 MOL      0.043648
    101 H42        -0.9370   -5.1860    1.3580 hn        1 MOL      0.288568
    102 H43         0.4400   -2.5580    1.4180 h1        1 MOL      0.168819
    103 H44         0.8520   -5.1430    2.7800 hc        1 MOL      0.026396
    104 H45         0.6060   -3.8620    4.8360 hc        1 MOL      0.028371
    105 H46        -0.7820   -3.5660    3.8290 hc        1 MOL      0.028371
    106 H47         2.8910   -2.8300    2.8770 hc        1 MOL      0.016727
    107 H48         2.7750   -4.1840    4.1020 hc        1 MOL      0.016727
    108 H49         3.2130   -4.4810    2.4470 hc        1 MOL      0.016727
    109 H50        -0.1870   -1.6340    4.9550 hc        1 MOL     -0.000806
    110 H51         1.4970   -1.6050    4.4300 hc        1 MOL     -0.000806
    111 H52         0.2320   -1.2910    3.2790 hc        1 MOL     -0.000806
    112 N10         2.1160   -3.0390   -0.3700 n         1 MOL     -0.065030
    113 C35         3.3030   -3.1730   -1.2360 c3        1 MOL     -0.050722
    114 C36         4.6310   -3.0190   -0.4960 c         1 MOL      0.468401
    115 O17         4.6990   -2.4830    0.5650 o         1 MOL     -0.371221
    116 C37         3.2250   -2.2190   -2.4370 c3        1 MOL      0.307778
    117 C38         2.1560   -2.5410   -3.4980 c3        1 MOL     -0.402040
    118 O18         3.1420   -0.8790   -2.0180 oh        1 MOL     -0.597605
    119 H53         1.8550   -2.1000   -0.1030 hn        1 MOL     -0.026413
    120 H54         3.2720   -4.2160   -1.5670 h1        1 MOL      0.053584
    121 H55         4.1740   -2.3420   -2.9460 h1        1 MOL      0.012865
    122 H56         2.3040   -0.6790   -1.5920 ho        1 MOL      0.421839
    123 H57         1.2220   -2.1400   -3.0980 hc        1 MOL      0.115044
    124 H58         2.4060   -2.0160   -4.4170 hc        1 MOL      0.115044
    125 H59         2.0660   -3.5970   -3.7350 hc        1 MOL      0.115044
    126 N11         5.7430   -3.2830   -1.1090 n         1 MOL     -0.355941
    127 C39         7.1450   -2.8320   -0.7360 c3        1 MOL     -0.226503
    128 C40         7.3920   -1.3670   -0.4490 c         1 MOL      0.382347
    129 O19         8.1070   -0.9860    0.4560 o         1 MOL     -0.478172
    130 C41         8.1680   -3.2310   -1.7950 c3        1 MOL      0.326822
    131 C42         8.1810   -4.7750   -1.8230 c3        1 MOL     -0.312732
    132 O20         7.8060   -2.8270   -3.1050 oh        1 MOL     -0.577390
    133 H60         5.6610   -3.8060   -1.9720 hn        1 MOL      0.278441
    134 H61         7.4900   -3.4160    0.1170 h1        1 MOL      0.162604
    135 H62         9.1840   -2.9160   -1.5590 h1        1 MOL      0.041878
    136 H63         8.2090   -1.9600   -3.1890 ho        1 MOL      0.363300
    137 H64         8.5510   -5.2640   -0.9140 hc        1 MOL      0.096142
    138 H65         7.2060   -5.2020   -2.0130 hc        1 MOL      0.096142
    139 H66         8.8810   -5.0670   -2.6160 hc        1 MOL      0.096142
    140 N12         6.4970   -0.5030   -1.0110 n         1 MOL     -0.297096
    141 C43         6.6050    0.9830   -0.7400 c3        1 MOL      0.020128
    142 C44         5.8200    1.3750    0.5090 c         1 MOL      0.378102
    143 O21         6.3300    2.1610    1.2180 o         1 MOL     -0.515510
    144 C45         6.1590    1.7860   -2.0050 c3        1 MOL      0.071763
    145 C46         5.9510    3.3230   -1.9630 c3        1 MOL     -0.024619
    146 C47         7.2510    4.1580   -1.6390 c3        1 MOL     -0.032052
    147 C48         8.2960    3.9720   -2.7400 c3        1 MOL     -0.081637
    148 N13         7.7550    4.2550   -4.1220 n4        1 MOL     -0.315011
    149 H67         5.8610   -0.8280   -1.7170 hn        1 MOL      0.227805
    150 H68         7.6690    1.2380   -0.6960 h1        1 MOL      0.091749
    151 H69         5.2320    1.2640   -2.2430 hc        1 MOL     -0.032638
    152 H70         6.8310    1.4810   -2.8070 hc        1 MOL     -0.032638
    153 H71         5.1170    3.5050   -1.2800 hc        1 MOL      0.015995
    154 H72         5.5640    3.6540   -2.9240 hc        1 MOL      0.015995
    155 H73         7.6870    3.9610   -0.6560 hc        1 MOL      0.055912
    156 H74         6.9420    5.2030   -1.5880 hc        1 MOL      0.055912
    157 H75         8.6760    2.9500   -2.6620 hx        1 MOL      0.121888
    158 H76         9.1390    4.6040   -2.4650 hx        1 MOL      0.121888
    159 H77         8.4700    4.3070   -4.8350 hn        1 MOL      0.297243
    160 H78         7.0800    3.5650   -4.4320 hn        1 MOL      0.297243
    161 H79         7.2960    5.1480   -4.2170 hn        1 MOL      0.297243
    162 N14         4.7610    0.6800    0.8540 n         1 MOL     -0.097489
    163 C49         3.9630    0.9120    2.0230 c3        1 MOL     -0.116419
    164 C50         4.4940    0.0150    3.2370 c         1 MOL      0.406528
    165 O22         4.3420    0.3980    4.4150 o         1 MOL     -0.538742
    166 C51         2.4890    0.4980    1.7340 c3        1 MOL      0.429409
    167 C52         1.8830    1.4510    0.7720 c3        1 MOL     -0.411616
    168 C53         0.7030    0.7250    0.1370 c         1 MOL      0.743865
    169 O23         0.7860   -0.3610   -0.4290 o         1 MOL     -0.709413
    170 O24        -0.3480    1.3670   -0.0210 o         1 MOL     -0.709413
    171 H80         4.4230   -0.1690    0.4170 hn        1 MOL      0.117735
    172 H81         4.0730    1.9230    2.4140 h1        1 MOL      0.087370
    173 H82         1.9560    0.5270    2.6840 hc        1 MOL     -0.066488
    174 H83         2.5500   -0.4640    1.2390 hc        1 MOL     -0.066488
    175 H84         2.5430    1.6940   -0.0540 hc        1 MOL      0.085152
    176 H85         1.5520    2.2950    1.3920 hc        1 MOL      0.085152
    177 N15         5.1850   -1.1010    2.9330 n         1 MOL     -0.049114
    178 C54         6.0250   -1.7540    3.9650 c3        1 MOL     -0.390912
    179 H86         7.0770   -1.6360    3.7050 h1        1 MOL      0.131993
    180 H87         5.8370   -1.2910    4.9340 h1        1 MOL      0.131993
    181 H88         5.7800   -2.8150    4.0150 h1        1 MOL      0.131993
    182 H89         5.2830   -1.4520    1.9830 hn        1 MOL      0.185454
    183 Ca1        -1.7470   -0.4560   -1.3980 Ca        1 MOL      1.772532
    184 O25        -1.0070   -2.6050   -2.7870 oh        1 MOL     -0.885517
    185 H90        -0.4410   -3.0370   -3.4250 ho        1 MOL      0.402264
    186 H91        -1.8100   -3.1380   -2.7760 ho        1 MOL      0.402264
    187 O26        -0.1880    0.3660   -3.3730 oh        1 MOL     -0.885517
    188 H92         0.6290    0.3190   -3.8500 ho        1 MOL      0.402264
    189 H93        -0.7460    0.9510   -3.9010 ho        1 MOL      0.402264
@<TRIPOS>BOND
     1    1    2 1   
     2    1    4 1   
     3    1    5 1   
     4    1    6 1   
     5    2    3 2   
     6    2    7 1   
     7    7    8 1   
     8    7   15 1   
     9    8    9 1   
    10    8   11 1   
    11    8   16 1   
    12    9   10 2   
    13    9   19 1   
    14   11   12 1   
    15   11   17 1   
    16   11   18 1   
    17   12   13 1   
    18   12   14 1   
    19   19   20 1   
    20   19   28 1   
    21   20   21 1   
    22   20   23 1   
    23   20   29 1   
    24   21   22 2   
    25   21   41 1   
    26   23   24 1   
    27   23   30 1   
    28   23   31 1   
    29   24   25 1   
    30   24   32 1   
    31   24   33 1   
    32   25   26 1   
    33   25   34 1   
    34   25   35 1   
    35   26   27 1   
    36   26   36 1   
    37   26   37 1   
    38   27   38 1   
    39   27   39 1   
    40   27   40 1   
    41   41   42 1   
    42   41   49 1   
    43   42   43 1   
    44   42   45 1   
    45   42   50 1   
    46   43   44 2   
    47   43   53 1   
    48   45   46 1   
    49   45   51 1   
    50   45   52 1   
    51   46   47 1   
    52   46   48 1   
    53   53   54 1   
    54   53   57 1   
    55   54   55 1   
    56   54   58 1   
    57   54   59 1   
    58   55   56 2   
    59   55   60 1   
    60   60   61 1   
    61   60   68 1   
    62   61   62 1   
    63   61   64 1   
    64   61   69 1   
    65   62   63 2   
    66   62   72 1   
    67   64   65 1   
    68   64   70 1   
    69   64   71 1   
    70   65   66 1   
    71   65   67 1   
    72   72   73 1   
    73   72   76 1   
    74   73   74 1   
    75   73   77 1   
    76   73   78 1   
    77   74   75 2   
    78   74   79 1   
    79   79   80 1   
    80   79   86 1   
    81   80   81 1   
    82   80   83 1   
    83   80   87 1   
    84   81   82 2   
    85   81   93 1   
    86   83   84 1   
    87   83   85 1   
    88   83   88 1   
    89   84   90 1   
    90   84   91 1   
    91   84   92 1   
    92   85   89 1   
    93   93   94 1   
    94   93  101 1   
    95   94   95 1   
    96   94   97 1   
    97   94  102 1   
    98   95   96 2   
    99   95  112 1   
   100   97   98 1   
   101   97   99 1   
   102   97  103 1   
   103   98  100 1   
   104   98  104 1   
   105   98  105 1   
   106   99  106 1   
   107   99  107 1   
   108   99  108 1   
   109  100  109 1   
   110  100  110 1   
   111  100  111 1   
   112  112  113 1   
   113  112  119 1   
   114  113  114 1   
   115  113  116 1   
   116  113  120 1   
   117  114  115 2   
   118  114  126 1   
   119  116  117 1   
   120  116  118 1   
   121  116  121 1   
   122  117  123 1   
   123  117  124 1   
   124  117  125 1   
   125  118  122 1   
   126  126  127 1   
   127  126  133 1   
   128  127  128 1   
   129  127  130 1   
   130  127  134 1   
   131  128  129 2   
   132  128  140 1   
   133  130  131 1   
   134  130  132 1   
   135  130  135 1   
   136  131  137 1   
   137  131  138 1   
   138  131  139 1   
   139  132  136 1   
   140  140  141 1   
   141  140  149 1   
   142  141  142 1   
   143  141  144 1   
   144  141  150 1   
   145  142  143 2   
   146  142  162 1   
   147  144  145 1   
   148  144  151 1   
   149  144  152 1   
   150  145  146 1   
   151  145  153 1   
   152  145  154 1   
   153  146  147 1   
   154  146  155 1   
   155  146  156 1   
   156  147  148 1   
   157  147  157 1   
   158  147  158 1   
   159  148  159 1   
   160  148  160 1   
   161  148  161 1   
   162  162  163 1   
   163  162  171 1   
   164  163  164 1   
   165  163  166 1   
   166  163  172 1   
   167  164  165 2   
   168  164  177 1   
   169  166  167 1   
   170  166  173 1   
   171  166  174 1   
   172  167  168 1   
   173  167  175 1   
   174  167  176 1   
   175  168  169 1   
   176  168  170 1   
   177  177  178 1   
   178  177  182 1   
   179  178  179 1   
   180  178  180 1   
   181  178  181 1   
   182  184  185 1   
   183  184  186 1   
   184  187  188 1   
   185  187  189 1   
@<TRIPOS>SUBSTRUCTURE
     1 MOL         1 TEMP              0 ****  ****    0 ROOT
