@<TRIPOS>MOLECULE
MOL
  186   183     1     0     0
SMALL
resp


@<TRIPOS>ATOM
      1 C1          1.1630   -2.3370    6.4960 c3        1 MOL     -0.231888
      2 C2          1.2780   -2.1940    4.9630 c         1 MOL      0.758836
      3 O1          0.2910   -2.3540    4.2440 o         1 MOL     -0.625248
      4 H1          0.2270   -2.8370    6.7440 hc        1 MOL      0.046530
      5 H2          2.0000   -2.9270    6.8700 hc        1 MOL      0.046530
      6 H3          1.1800   -1.3490    6.9560 hc        1 MOL      0.046530
      7 N1          2.4740   -1.9560    4.4700 n         1 MOL     -0.620337
      8 C3          2.8950   -1.8700    3.0770 c3        1 MOL      0.317487
      9 C4          3.1750   -3.1830    2.4820 c         1 MOL      0.460988
     10 O2          4.1650   -3.8250    2.8640 o         1 MOL     -0.574061
     11 C5          3.9390   -0.7450    2.9530 c3        1 MOL     -0.369893
     12 C6          4.5190   -0.5500    1.5570 c         1 MOL      0.810636
     13 O3          3.9900   -1.0550    0.5610 o         1 MOL     -0.677677
     14 O4          5.5310    0.1400    1.4180 o         1 MOL     -0.677677
     15 H4          3.0260   -1.5150    5.1830 hn        1 MOL      0.295648
     16 H5          2.0230   -1.5660    2.4970 h1        1 MOL     -0.013014
     17 H6          4.8430   -0.7850    3.5660 hc        1 MOL      0.073573
     18 H7          3.4120    0.1830    3.1800 hc        1 MOL      0.073573
     19 N2          2.2240   -3.7180    1.6360 n         1 MOL     -0.194210
     20 C7          2.3230   -5.1080    1.0870 c3        1 MOL     -0.244940
     21 C8          3.3080   -5.2360   -0.0210 c         1 MOL      0.734438
     22 O5          3.5610   -6.3330   -0.4530 o         1 MOL     -0.616339
     23 C9          0.9700   -5.7830    0.7180 c3        1 MOL      0.084155
     24 C10         0.4080   -5.0570   -0.5370 c3        1 MOL     -0.022783
     25 C11        -0.0120   -5.5720    1.8620 c3        1 MOL     -0.220799
     26 C12        -1.0960   -5.3440   -0.8150 c3        1 MOL     -0.162972
     27 H8          1.5350   -3.0420    1.3180 hn        1 MOL      0.192154
     28 H9          2.8630   -5.6900    1.8360 h1        1 MOL      0.112619
     29 H10         1.2490   -6.8170    0.5170 hc        1 MOL      0.022328
     30 H11         0.9330   -5.4680   -1.4060 hc        1 MOL      0.055113
     31 H12         0.4820   -3.9830   -0.6330 hc        1 MOL      0.055113
     32 H13         0.3320   -5.6320    2.9020 hc        1 MOL      0.066338
     33 H14        -0.4600   -4.5820    1.8150 hc        1 MOL      0.066338
     34 H15        -0.7920   -6.3390    1.8490 hc        1 MOL      0.066338
     35 H16        -1.3290   -5.0050   -1.8220 hc        1 MOL      0.033701
     36 H17        -1.2910   -6.4190   -0.9140 hc        1 MOL      0.033701
     37 H18        -1.8430   -5.0020   -0.0990 hc        1 MOL      0.033701
     38 N3          3.9800   -4.1880   -0.4820 n         1 MOL     -0.563898
     39 C13         4.9440   -4.3090   -1.5830 c3        1 MOL      0.096943
     40 C14         6.2090   -3.4860   -1.6180 c         1 MOL      0.480902
     41 O6          6.9830   -3.5330   -2.5150 o         1 MOL     -0.519065
     42 C15         4.1340   -4.0110   -2.9170 c3        1 MOL     -0.230602
     43 C16         3.4650   -2.6870   -3.1870 c         1 MOL      0.761049
     44 O7          2.7790   -2.4450   -4.2090 o         1 MOL     -0.695246
     45 O8          3.5470   -1.7670   -2.3060 o         1 MOL     -0.695246
     46 H19         3.6530   -3.2550   -0.2750 hn        1 MOL      0.248905
     47 H20         5.3540   -5.3210   -1.5440 h1        1 MOL      0.089906
     48 H21         3.3000   -4.7190   -2.8790 hc        1 MOL      0.045469
     49 H22         4.8290   -4.3600   -3.6890 hc        1 MOL      0.045469
     50 N4          6.4290   -2.5690   -0.6140 n         1 MOL     -0.297678
     51 C17         7.6370   -1.8020   -0.5010 c3        1 MOL     -0.361201
     52 C18         7.8670   -0.5880   -1.3470 c         1 MOL      0.648047
     53 O9          9.0320   -0.2600   -1.4820 o         1 MOL     -0.617586
     54 H23         5.6950   -2.2910    0.0160 hn        1 MOL      0.251392
     55 H24         8.4310   -2.5060   -0.7340 h1        1 MOL      0.142888
     56 H25         7.6200   -1.5140    0.5500 h1        1 MOL      0.142888
     57 N5          6.8500    0.1770   -1.7830 n         1 MOL     -0.258874
     58 C19         6.9730    1.4840   -2.3660 c3        1 MOL     -0.087852
     59 C20         7.2290    2.5700   -1.2690 c         1 MOL      0.525200
     60 O10         7.4510    3.7120   -1.6570 o         1 MOL     -0.569253
     61 C21         5.7620    1.8170   -3.2020 c3        1 MOL     -0.074815
     62 C22         4.3780    1.6140   -2.5390 c         1 MOL      0.756006
     63 O11         3.4710    1.2590   -3.3100 o         1 MOL     -0.710924
     64 O12         4.2610    1.7040   -1.3240 o         1 MOL     -0.710924
     65 H26         5.9360   -0.1760   -1.5300 hn        1 MOL      0.176673
     66 H27         7.8310    1.4250   -3.0350 h1        1 MOL      0.096899
     67 H28         5.7890    1.1710   -4.0780 hc        1 MOL      0.025581
     68 H29         5.8060    2.7960   -3.6750 hc        1 MOL      0.025581
     69 N6          7.1340    2.1310   -0.0020 n         1 MOL     -0.323834
     70 C23         7.1690    2.9760    1.1560 c3        1 MOL     -0.062124
     71 C24         5.8320    3.6040    1.6200 c         1 MOL      0.470498
     72 O13         5.8700    4.5160    2.4090 o         1 MOL     -0.587293
     73 H30         6.5920    1.2790    0.1040 hn        1 MOL      0.249627
     74 H31         7.9090    3.7700    1.0390 h1        1 MOL      0.070912
     75 H32         7.4570    2.4640    2.0680 h1        1 MOL      0.070912
     76 N7          4.7300    3.2540    0.9910 n         1 MOL     -0.142668
     77 C25         3.4340    3.8260    1.1620 c3        1 MOL      0.209931
     78 C26         2.3210    2.8210    1.3870 c         1 MOL      0.440085
     79 O14         2.3640    1.6440    1.0030 o         1 MOL     -0.547652
     80 C27         3.1740    4.7610   -0.0320 c3        1 MOL     -0.236101
     81 C28         4.1170    6.0680   -0.1430 c3        1 MOL     -0.127351
     82 C29         3.4500    7.2480   -0.8790 c         1 MOL      0.648984
     83 N8          3.1870    7.1150   -2.1330 n         1 MOL     -0.811257
     84 O15         3.1580    8.2890   -0.3360 o         1 MOL     -0.588778
     85 H33         4.7570    2.4150    0.4450 hn        1 MOL      0.102603
     86 H34         3.5900    4.3810    2.0790 h1        1 MOL     -0.004021
     87 H35         2.1890    5.1840    0.1790 hc        1 MOL      0.086056
     88 H36         3.2830    4.1730   -0.9540 hc        1 MOL      0.086056
     89 H37         5.1060    5.8760   -0.5460 hc        1 MOL      0.061499
     90 H38         4.2630    6.4860    0.8480 hc        1 MOL      0.061499
     91 H39         3.5320    6.2760   -2.5770 hn        1 MOL      0.369776
     92 H40         2.7890    7.9100   -2.6130 hn        1 MOL      0.369776
     93 N9          1.1620    3.2940    1.8440 n         1 MOL     -0.461757
     94 C30        -0.0150    2.5070    2.0860 c3        1 MOL      0.085771
     95 C31        -1.1920    3.1320    1.3910 c         1 MOL      0.326220
     96 O16        -1.6370    4.2340    1.8260 o         1 MOL     -0.547302
     97 C32        -0.3370    2.2990    3.5600 c3        1 MOL      0.348759
     98 C33        -1.7050    1.5400    3.6900 c3        1 MOL     -0.388887
     99 C34         0.7030    1.5150    4.3880 c3        1 MOL     -0.388887
    100 H41         1.1450    4.2710    2.0970 hn        1 MOL      0.284719
    101 H42         0.1260    1.5140    1.6580 h1        1 MOL      0.132946
    102 H43        -0.4080    3.2950    3.9930 hc        1 MOL     -0.051839
    103 H44        -2.5310    2.1860    3.3830 hc        1 MOL      0.082764
    104 H45        -1.6580    0.7130    2.9860 hc        1 MOL      0.082764
    105 H46        -1.8300    1.2610    4.7390 hc        1 MOL      0.082764
    106 H47         1.0650    0.6500    3.8340 hc        1 MOL      0.082764
    107 H48         1.5670    2.1760    4.4350 hc        1 MOL      0.082764
    108 H49         0.2890    1.2680    5.3630 hc        1 MOL      0.082764
    109 N10        -1.7320    2.4470    0.3620 n         1 MOL     -0.135808
    110 C35        -2.8760    2.9470   -0.3740 c3        1 MOL     -0.011647
    111 C36        -4.1790    2.3030    0.0820 c         1 MOL      0.307269
    112 O17        -4.1750    1.5780    1.0790 o         1 MOL     -0.323383
    113 C37        -2.4740    2.7710   -1.9170 c3        1 MOL     -0.291527
    114 C38        -2.9090    1.3970   -2.4500 c         1 MOL      0.558552
    115 N11        -2.2060    0.3100   -2.1630 n         1 MOL     -0.716619
    116 O18        -3.8430    1.3680   -3.2040 o         1 MOL     -0.575228
    117 H50        -1.3400    1.5500    0.1230 hn        1 MOL      0.262347
    118 H51        -2.8650    4.0300   -0.2950 h1        1 MOL      0.083594
    119 H52        -1.4050    2.8890   -2.0450 hc        1 MOL      0.112269
    120 H53        -2.8620    3.6070   -2.5020 hc        1 MOL      0.112269
    121 H54        -1.4470    0.4130   -1.4980 hn        1 MOL      0.387091
    122 H55        -2.5130   -0.5470   -2.5880 hn        1 MOL      0.387091
    123 N12        -5.2690    2.4250   -0.6350 n         1 MOL     -0.333478
    124 C39        -6.6010    1.9210   -0.2230 c3        1 MOL      0.072362
    125 C40        -6.7760    0.4260   -0.2770 c         1 MOL      0.639408
    126 O19        -7.2410   -0.1970    0.6370 o         1 MOL     -0.541462
    127 C41        -7.6640    2.6470   -1.0360 c3        1 MOL     -0.178577
    128 C42        -9.0440    2.3310   -0.5550 ca        1 MOL     -0.137593
    129 C43        -9.3720    2.7050    0.7210 ca        1 MOL      0.079913
    130 C44        -9.9210    1.4910   -1.2270 ca        1 MOL      0.079913
    131 C45       -10.6000    2.3520    1.3250 ca        1 MOL     -0.489458
    132 C46       -11.1840    1.2420   -0.6870 ca        1 MOL     -0.489458
    133 C47       -11.5150    1.4970    0.6720 ca        1 MOL      0.537337
    134 O20       -12.6540    0.9680    1.2330 oh        1 MOL     -0.535029
    135 H56        -5.2120    2.7090   -1.6050 hn        1 MOL      0.196558
    136 H57        -6.7630    2.2300    0.8110 h1        1 MOL      0.076780
    137 H58        -7.5030    2.4290   -2.0860 hc        1 MOL      0.083443
    138 H59        -7.4460    3.7090   -0.9120 hc        1 MOL      0.083443
    139 H60        -8.5880    3.2300    1.2450 ha        1 MOL      0.079971
    140 H61        -9.6180    1.1260   -2.2060 ha        1 MOL      0.079971
    141 H62       -10.6650    2.4400    2.3940 ha        1 MOL      0.183037
    142 H63       -11.8910    0.6430   -1.2510 ha        1 MOL      0.183037
    143 H64       -13.1390    0.6270    0.4780 ho        1 MOL      0.369267
    144 N13        -6.2030   -0.1930   -1.2600 n         1 MOL     -0.405490
    145 C48        -6.2800   -1.6240   -1.4280 c3        1 MOL     -0.003586
    146 C49        -5.5020   -2.2640   -0.2880 c         1 MOL      0.269775
    147 O21        -5.8360   -3.3720    0.1440 o         1 MOL     -0.520384
    148 C50        -5.6050   -1.9690   -2.7640 c3        1 MOL     -0.034045
    149 C51        -6.3520   -1.3820   -3.9850 c3        1 MOL     -0.100603
    150 C52        -7.5080   -2.1230   -4.5900 c         1 MOL      0.668896
    151 O22        -7.2510   -3.1860   -5.2580 o         1 MOL     -0.724444
    152 O23        -8.7260   -1.7210   -4.4570 o         1 MOL     -0.724444
    153 H65        -5.8370    0.4150   -1.9850 hn        1 MOL      0.298033
    154 H66        -7.3030   -1.9890   -1.3670 h1        1 MOL      0.125767
    155 H67        -5.5710   -3.0420   -2.9120 hc        1 MOL      0.031813
    156 H68        -4.5680   -1.6410   -2.6400 hc        1 MOL      0.031813
    157 H69        -5.6600   -1.4700   -4.8260 hc        1 MOL     -0.013217
    158 H70        -6.5520   -0.3310   -3.7840 hc        1 MOL     -0.013217
    159 N14        -4.4820   -1.6780    0.2430 n         1 MOL     -0.013669
    160 C53        -3.7320   -2.1320    1.4590 c3        1 MOL     -0.152302
    161 C54        -4.4350   -1.8000    2.7910 c         1 MOL      0.521509
    162 O24        -4.4470   -2.5980    3.7130 o         1 MOL     -0.558027
    163 C55        -2.3520   -1.4200    1.4520 c3        1 MOL      0.107776
    164 C56        -1.4760   -1.9440    0.2900 c3        1 MOL      0.092873
    165 C57        -0.1990   -1.0640    0.0430 c         1 MOL      0.759424
    166 O25         0.9200   -1.6250    0.1670 o         1 MOL     -0.768234
    167 O26        -0.2590    0.1140   -0.2670 o         1 MOL     -0.768234
    168 H71        -4.2530   -0.7980   -0.1920 hn        1 MOL      0.186046
    169 H72        -3.5590   -3.2040    1.4460 h1        1 MOL      0.111060
    170 H73        -1.7810   -1.5770    2.3730 hc        1 MOL     -0.000601
    171 H74        -2.5230   -0.3500    1.4870 hc        1 MOL     -0.000601
    172 H75        -2.0470   -2.0530   -0.6340 hc        1 MOL     -0.081900
    173 H76        -1.2340   -2.9680    0.5630 hc        1 MOL     -0.081900
    174 N15        -5.1880   -0.6510    2.8480 n         1 MOL     -0.017600
    175 C58        -5.9020   -0.1160    4.0320 c3        1 MOL     -0.525991
    176 H77        -6.8370   -0.6600    4.1690 h1        1 MOL      0.164441
    177 H78        -5.2800   -0.2360    4.9180 h1        1 MOL      0.164441
    178 H79        -6.1180    0.9420    3.8800 h1        1 MOL      0.164441
    179 H80        -5.2470   -0.0830    2.0110 hn        1 MOL     -0.010000
    180 Ca1         2.3850    0.0130   -0.9880 Ca        1 MOL      1.668676
    181 O27         0.8140   -0.9030   -2.9560 oh        1 MOL     -0.909725
    182 H81         1.5330   -1.2620   -3.4700 ho        1 MOL      0.417719
    183 H82         0.0540   -1.4260   -3.2030 ho        1 MOL      0.417719
    184 O28         1.4450    2.3400   -2.1320 oh        1 MOL     -0.909725
    185 H83         1.9950    2.1960   -2.8960 ho        1 MOL      0.417719
    186 H84         0.5820    2.5760   -2.4970 ho        1 MOL      0.417719
@<TRIPOS>BOND
     1    1    2 1   
     2    1    4 1   
     3    1    5 1   
     4    1    6 1   
     5    2    3 2   
     6    2    7 1   
     7    7    8 1   
     8    7   15 1   
     9    8    9 1   
    10    8   11 1   
    11    8   16 1   
    12    9   10 2   
    13    9   19 1   
    14   11   12 1   
    15   11   17 1   
    16   11   18 1   
    17   12   13 1   
    18   12   14 1   
    19   19   20 1   
    20   19   27 1   
    21   20   21 1   
    22   20   23 1   
    23   20   28 1   
    24   21   22 2   
    25   21   38 1   
    26   23   24 1   
    27   23   25 1   
    28   23   29 1   
    29   24   26 1   
    30   24   30 1   
    31   24   31 1   
    32   25   32 1   
    33   25   33 1   
    34   25   34 1   
    35   26   35 1   
    36   26   36 1   
    37   26   37 1   
    38   38   39 1   
    39   38   46 1   
    40   39   40 1   
    41   39   42 1   
    42   39   47 1   
    43   40   41 2   
    44   40   50 1   
    45   42   43 1   
    46   42   48 1   
    47   42   49 1   
    48   43   44 1   
    49   43   45 1   
    50   50   51 1   
    51   50   54 1   
    52   51   52 1   
    53   51   55 1   
    54   51   56 1   
    55   52   53 2   
    56   52   57 1   
    57   57   58 1   
    58   57   65 1   
    59   58   59 1   
    60   58   61 1   
    61   58   66 1   
    62   59   60 2   
    63   59   69 1   
    64   61   62 1   
    65   61   67 1   
    66   61   68 1   
    67   62   63 1   
    68   62   64 1   
    69   69   70 1   
    70   69   73 1   
    71   70   71 1   
    72   70   74 1   
    73   70   75 1   
    74   71   72 2   
    75   71   76 1   
    76   76   77 1   
    77   76   85 1   
    78   77   78 1   
    79   77   80 1   
    80   77   86 1   
    81   78   79 2   
    82   78   93 1   
    83   80   81 1   
    84   80   87 1   
    85   80   88 1   
    86   81   82 1   
    87   81   89 1   
    88   81   90 1   
    89   82   83 1   
    90   82   84 2   
    91   83   91 1   
    92   83   92 1   
    93   93   94 1   
    94   93  100 1   
    95   94   95 1   
    96   94   97 1   
    97   94  101 1   
    98   95   96 2   
    99   95  109 1   
   100   97   98 1   
   101   97   99 1   
   102   97  102 1   
   103   98  103 1   
   104   98  104 1   
   105   98  105 1   
   106   99  106 1   
   107   99  107 1   
   108   99  108 1   
   109  109  110 1   
   110  109  117 1   
   111  110  111 1   
   112  110  113 1   
   113  110  118 1   
   114  111  112 2   
   115  111  123 1   
   116  113  114 1   
   117  113  119 1   
   118  113  120 1   
   119  114  115 1   
   120  114  116 2   
   121  115  121 1   
   122  115  122 1   
   123  123  124 1   
   124  123  135 1   
   125  124  125 1   
   126  124  127 1   
   127  124  136 1   
   128  125  126 2   
   129  125  144 1   
   130  127  128 1   
   131  127  137 1   
   132  127  138 1   
   133  128  129 ar  
   134  128  130 ar  
   135  129  131 ar  
   136  129  139 1   
   137  130  132 ar  
   138  130  140 1   
   139  131  133 ar  
   140  131  141 1   
   141  132  133 ar  
   142  132  142 1   
   143  133  134 1   
   144  134  143 1   
   145  144  145 1   
   146  144  153 1   
   147  145  146 1   
   148  145  148 1   
   149  145  154 1   
   150  146  147 2   
   151  146  159 1   
   152  148  149 1   
   153  148  155 1   
   154  148  156 1   
   155  149  150 1   
   156  149  157 1   
   157  149  158 1   
   158  150  151 1   
   159  150  152 1   
   160  159  160 1   
   161  159  168 1   
   162  160  161 1   
   163  160  163 1   
   164  160  169 1   
   165  161  162 2   
   166  161  174 1   
   167  163  164 1   
   168  163  170 1   
   169  163  171 1   
   170  164  165 1   
   171  164  172 1   
   172  164  173 1   
   173  165  166 1   
   174  165  167 1   
   175  174  175 1   
   176  174  179 1   
   177  175  176 1   
   178  175  177 1   
   179  175  178 1   
   180  181  182 1   
   181  181  183 1   
   182  184  185 1   
   183  184  186 1   
@<TRIPOS>SUBSTRUCTURE
     1 MOL         1 TEMP              0 ****  ****    0 ROOT
