@<TRIPOS>MOLECULE
MOL
  189   185     1     0     0
SMALL
resp


@<TRIPOS>ATOM
      1 C1          1.3100    3.4500   -5.3960 c3        1 MOL     -0.434026
      2 C2          1.3170    2.6530   -4.1840 c         1 MOL      0.788729
      3 O1          0.3160    2.6870   -3.4810 o         1 MOL     -0.669021
      4 H1          1.6160    2.8300   -6.2390 hc        1 MOL      0.102973
      5 H2          0.3040    3.8320   -5.5730 hc        1 MOL      0.102973
      6 H3          2.0030    4.2850   -5.2870 hc        1 MOL      0.102973
      7 N1          2.4700    2.0670   -3.8230 n         1 MOL     -0.446983
      8 C3          2.8560    1.7860   -2.3980 c3        1 MOL     -0.039283
      9 C4          3.0570    3.0760   -1.5490 c         1 MOL      0.366947
     10 O2          4.1430    3.7030   -1.3380 o         1 MOL     -0.477897
     11 C5          4.1760    0.9800   -2.5060 c3        1 MOL      0.123536
     12 C6          4.4310    0.3890   -1.1470 c         1 MOL      0.633512
     13 O3          3.7500    0.6660   -0.1440 o         1 MOL     -0.685524
     14 O4          5.4350   -0.3500   -1.0810 o         1 MOL     -0.685524
     15 H4          3.1960    2.0330   -4.5290 hn        1 MOL      0.260186
     16 H5          2.1210    1.0950   -1.9890 h1        1 MOL      0.034603
     17 H6          5.0430    1.5850   -2.7900 hc        1 MOL     -0.007220
     18 H7          4.1000    0.1810   -3.2390 hc        1 MOL     -0.007220
     19 N2          1.9090    3.6130   -1.1020 n         1 MOL     -0.163661
     20 C7          1.7030    4.8980   -0.4030 c3        1 MOL     -0.213104
     21 C8          2.5970    5.0680    0.8330 c         1 MOL      0.660532
     22 O5          3.1080    6.1330    0.9930 o         1 MOL     -0.570473
     23 C9          0.1610    5.1880   -0.1590 c3        1 MOL     -0.010603
     24 C10        -0.6040    5.4580   -1.3490 c3        1 MOL      0.005284
     25 C11        -1.7180    6.4940   -1.2020 c3        1 MOL      0.078291
     26 C12        -2.6910    6.5140   -2.3670 c3        1 MOL      0.069561
     27 N3         -3.6780    7.6090   -2.2170 n4        1 MOL     -0.341956
     28 H8          1.1230    2.9810   -1.1060 hn        1 MOL      0.252884
     29 H9          2.0550    5.5720   -1.1870 h1        1 MOL      0.109688
     30 H10         0.0900    6.0710    0.4750 hc        1 MOL     -0.002107
     31 H11        -0.2080    4.3170    0.3820 hc        1 MOL     -0.002107
     32 H12        -0.9080    4.5020   -1.7750 hc        1 MOL      0.027606
     33 H13         0.1540    5.9290   -1.9730 hc        1 MOL      0.027606
     34 H14        -1.3080    7.4950   -1.0780 hc        1 MOL      0.002774
     35 H15        -2.3540    6.3300   -0.3370 hc        1 MOL      0.002774
     36 H16        -3.2100    5.5600   -2.4290 hx        1 MOL      0.063780
     37 H17        -2.0360    6.7460   -3.2040 hx        1 MOL      0.063780
     38 H18        -3.2750    8.5270   -2.1160 hn        1 MOL      0.316517
     39 H19        -4.3620    7.6050   -2.9680 hn        1 MOL      0.316517
     40 H20        -4.2700    7.4240   -1.4100 hn        1 MOL      0.316517
     41 N4          2.8870    3.9440    1.5320 n         1 MOL     -0.344460
     42 C13         3.6760    3.9450    2.7190 c3        1 MOL      0.014647
     43 C14         5.0090    3.1870    2.6340 c         1 MOL      0.520462
     44 O6          5.7550    3.2030    3.5750 o         1 MOL     -0.523212
     45 C15         2.8370    3.6250    3.9820 c3        1 MOL     -0.002807
     46 C16         2.2530    2.2170    3.8270 c         1 MOL      0.771270
     47 O7          1.5140    1.7580    4.7100 o         1 MOL     -0.695269
     48 O8          2.7000    1.4580    2.9690 o         1 MOL     -0.695269
     49 H21         2.6170    3.0170    1.2610 hn        1 MOL      0.167819
     50 H22         3.9880    4.9770    2.9430 h1        1 MOL      0.051109
     51 H23         1.9520    4.2750    3.9890 hc        1 MOL     -0.017863
     52 H24         3.3700    3.7130    4.9250 hc        1 MOL     -0.017863
     53 N5          5.4180    2.7360    1.4410 n         1 MOL     -0.144679
     54 C17         6.7010    2.1210    1.1780 c3        1 MOL     -0.114805
     55 C18         7.0520    0.8300    1.9240 c         1 MOL      0.639745
     56 O9          7.6760    0.8940    3.0000 o         1 MOL     -0.540533
     57 H25         4.8380    2.7560    0.6100 hn        1 MOL      0.122076
     58 H26         7.4580    2.8900    1.3730 h1        1 MOL      0.055211
     59 H27         6.8600    1.9490    0.1140 h1        1 MOL      0.055211
     60 N6          6.6430   -0.3360    1.4440 n         1 MOL     -0.603596
     61 C19         6.8350   -1.6370    2.0980 c3        1 MOL      0.051795
     62 C20         6.9220   -2.8460    1.1660 c         1 MOL      0.380285
     63 O10         7.1940   -3.9730    1.5860 o         1 MOL     -0.529342
     64 C21         5.7390   -1.8560    3.1190 c3        1 MOL     -0.167261
     65 C22         4.3540   -1.8410    2.4890 c         1 MOL      0.761520
     66 O11         3.3700   -1.4660    3.2030 o         1 MOL     -0.752850
     67 O12         4.0710   -2.1740    1.2740 o         1 MOL     -0.752850
     68 H28         6.1020   -0.3000    0.6010 hn        1 MOL      0.316042
     69 H29         7.6700   -1.6800    2.7960 h1        1 MOL      0.096601
     70 H30         5.7350   -1.0670    3.8670 hc        1 MOL      0.083781
     71 H31         5.9030   -2.8210    3.6030 hc        1 MOL      0.083781
     72 N7          6.8260   -2.6330   -0.1310 n         1 MOL     -0.156992
     73 C23         6.9310   -3.5780   -1.2270 c3        1 MOL     -0.221307
     74 C24         5.5190   -3.9570   -1.8350 c         1 MOL      0.785809
     75 O13         5.4230   -4.8130   -2.7190 o         1 MOL     -0.639660
     76 H32         6.4950   -1.7090   -0.3780 hn        1 MOL      0.208716
     77 H33         7.4050   -4.5100   -0.9320 h1        1 MOL      0.100596
     78 H34         7.5310   -3.0380   -1.9580 h1        1 MOL      0.100596
     79 N8          4.4070   -3.3210   -1.4390 n         1 MOL     -0.732674
     80 C25         3.0150   -3.9530   -1.5460 c3        1 MOL      0.273314
     81 C26         1.7880   -3.0400   -1.4920 c         1 MOL      0.330913
     82 O14         1.8000   -2.0520   -0.7370 o         1 MOL     -0.539538
     83 C27         2.7440   -5.0420   -0.4840 c3        1 MOL      0.289603
     84 C28         3.0500   -6.4290   -1.0540 c3        1 MOL     -0.325655
     85 O15         3.6220   -4.7890    0.6280 oh        1 MOL     -0.596034
     86 H35         4.3930   -2.6000   -0.7370 hn        1 MOL      0.501051
     87 H36         2.9790   -4.4970   -2.4890 h1        1 MOL      0.010838
     88 H37         1.7510   -4.9770   -0.0330 h1        1 MOL      0.006117
     89 H38         3.3880   -3.9160    0.9420 ho        1 MOL      0.386298
     90 H39         3.0950   -7.2550   -0.3440 hc        1 MOL      0.084689
     91 H40         2.2190   -6.7100   -1.6960 hc        1 MOL      0.084689
     92 H41         4.0230   -6.4270   -1.5420 hc        1 MOL      0.084689
     93 N9          0.8670   -3.3210   -2.3810 n         1 MOL     -0.469753
     94 C29        -0.3660   -2.5700   -2.4950 c3        1 MOL      0.061831
     95 C30        -1.4600   -3.3680   -1.7380 c         1 MOL      0.451165
     96 O16        -1.6510   -4.5300   -2.0510 o         1 MOL     -0.564012
     97 C31        -0.6860   -2.2770   -4.0200 c3        1 MOL      0.060363
     98 C32        -0.0680   -0.9590   -4.4880 c3        1 MOL      0.034871
     99 C33        -2.1830   -2.0560   -4.1670 c3        1 MOL     -0.343135
    100 C34         1.4540   -0.8400   -4.4720 c3        1 MOL     -0.269016
    101 H42         1.0000   -4.1040   -3.0070 hn        1 MOL      0.306898
    102 H43        -0.1960   -1.5910   -2.0550 h1        1 MOL      0.115390
    103 H44        -0.3820   -3.0810   -4.6740 hc        1 MOL      0.041324
    104 H45        -0.4010   -0.0580   -3.9620 hc        1 MOL      0.021407
    105 H46        -0.4450   -0.8160   -5.4960 hc        1 MOL      0.021407
    106 H47        -2.4120   -1.3020   -3.4130 hc        1 MOL      0.082441
    107 H48        -2.3540   -1.7630   -5.2000 hc        1 MOL      0.082441
    108 H49        -2.8120   -2.9340   -4.0060 hc        1 MOL      0.082441
    109 H50         1.6920    0.0020   -5.1160 hc        1 MOL      0.063415
    110 H51         1.7170   -0.7200   -3.4150 hc        1 MOL      0.063415
    111 H52         1.9790   -1.7220   -4.8430 hc        1 MOL      0.063415
    112 N10        -2.0010   -2.8130   -0.7020 n         1 MOL     -0.054592
    113 C35        -3.0860   -3.2700    0.1300 c3        1 MOL     -0.131925
    114 C36        -4.4350   -2.8000   -0.4890 c         1 MOL      0.455331
    115 O17        -4.4950   -1.9470   -1.4060 o         1 MOL     -0.402392
    116 C37        -3.0190   -2.7070    1.4860 c3        1 MOL      0.285539
    117 C38        -2.0070   -3.2680    2.4420 c3        1 MOL     -0.318346
    118 O18        -2.8610   -1.3060    1.4480 oh        1 MOL     -0.595334
    119 H53        -1.5830   -1.9210   -0.4730 hn        1 MOL      0.119033
    120 H54        -3.1580   -4.3550    0.1670 h1        1 MOL      0.083856
    121 H55        -3.9810   -2.9470    1.9410 h1        1 MOL     -0.002318
    122 H56        -1.9360   -1.1290    1.2690 ho        1 MOL      0.395356
    123 H57        -1.0310   -3.2090    1.9510 hc        1 MOL      0.097639
    124 H58        -1.9160   -2.7660    3.3980 hc        1 MOL      0.097639
    125 H59        -2.1650   -4.3230    2.6640 hc        1 MOL      0.097639
    126 N11        -5.5370   -3.3040    0.0140 n         1 MOL     -0.408422
    127 C39        -6.8510   -2.7660   -0.2640 c3        1 MOL      0.013690
    128 C40        -7.0640   -1.3010   -0.2690 c         1 MOL      0.433378
    129 O19        -7.7320   -0.8000   -1.1710 o         1 MOL     -0.490229
    130 C41        -7.8790   -3.3910    0.7020 c3        1 MOL      0.176236
    131 C42        -8.2160   -4.8240    0.5110 c3        1 MOL     -0.351149
    132 O20        -7.2430   -3.4210    1.9540 oh        1 MOL     -0.597344
    133 H60        -5.5240   -3.9390    0.7960 hn        1 MOL      0.310510
    134 H61        -7.0020   -3.0050   -1.3120 h1        1 MOL      0.124085
    135 H62        -8.7230   -2.6980    0.7230 h1        1 MOL      0.058914
    136 H63        -7.9270   -3.5590    2.6180 ho        1 MOL      0.390438
    137 H64        -8.7020   -5.0020   -0.4510 hc        1 MOL      0.111784
    138 H65        -7.3530   -5.4600    0.7200 hc        1 MOL      0.111784
    139 H66        -8.8710   -5.0560    1.3480 hc        1 MOL      0.111784
    140 N12        -6.5790   -0.5690    0.7650 n         1 MOL     -0.513024
    141 C43        -6.7780    0.9160    0.8590 c3        1 MOL      0.118088
    142 C44        -5.8780    1.8450    0.0190 c         1 MOL      0.286973
    143 O21        -5.9810    3.0780    0.0220 o         1 MOL     -0.513090
    144 C45        -6.6250    1.1450    2.3910 c3        1 MOL     -0.057196
    145 C46        -7.6720    0.2550    3.0820 c3        1 MOL     -0.042668
    146 C47        -7.9510    0.9920    4.4400 c3        1 MOL     -0.040686
    147 C48        -8.8140    0.1390    5.3180 c3        1 MOL      0.115986
    148 N13        -8.7330    0.5370    6.7640 n4        1 MOL     -0.317892
    149 H67        -6.1620   -1.0440    1.5540 hn        1 MOL      0.356323
    150 H68        -7.8060    1.1360    0.5670 h1        1 MOL      0.102133
    151 H69        -6.7640    2.2140    2.5380 hc        1 MOL      0.050672
    152 H70        -5.7040    0.8110    2.8760 hc        1 MOL      0.050672
    153 H71        -7.2380   -0.7130    3.2980 hc        1 MOL      0.042541
    154 H72        -8.6220    0.2650    2.5480 hc        1 MOL      0.042541
    155 H73        -8.3810    1.9750    4.2950 hc        1 MOL      0.037294
    156 H74        -7.0230    1.0560    5.0050 hc        1 MOL      0.037294
    157 H75        -8.4560   -0.8890    5.3200 hx        1 MOL      0.044075
    158 H76        -9.8470    0.1230    4.9640 hx        1 MOL      0.044075
    159 H77        -9.3500    0.0280    7.3880 hn        1 MOL      0.274228
    160 H78        -7.7660    0.4660    7.0420 hn        1 MOL      0.274228
    161 H79        -9.1580    1.4430    6.9070 hn        1 MOL      0.274228
    162 N14        -4.9170    1.1960   -0.6580 n         1 MOL     -0.003507
    163 C49        -3.9660    1.7710   -1.6460 c3        1 MOL     -0.257402
    164 C50        -4.3770    1.4630   -3.0920 c         1 MOL      0.466079
    165 O22        -3.7730    2.0510   -4.0170 o         1 MOL     -0.556774
    166 C51        -2.5010    1.2270   -1.4160 c3        1 MOL     -0.012225
    167 C52        -1.9500    1.5980   -0.0730 c3        1 MOL      0.043704
    168 C53        -0.6770    0.9140    0.1690 c         1 MOL      0.815889
    169 O23        -0.4900   -0.3400    0.2510 o         1 MOL     -0.820276
    170 O24         0.3630    1.5110    0.6130 o         1 MOL     -0.820276
    171 H80        -4.9530    0.1970   -0.5490 hn        1 MOL      0.034699
    172 H81        -3.9350    2.8590   -1.6470 h1        1 MOL      0.152657
    173 H82        -1.7450    1.5370   -2.1370 hc        1 MOL      0.081144
    174 H83        -2.5010    0.1460   -1.4770 hc        1 MOL      0.081144
    175 H84        -2.5850    1.3160    0.7690 hc        1 MOL     -0.016277
    176 H85        -1.8320    2.6810    0.0030 hc        1 MOL     -0.016277
    177 N15        -5.3220    0.5790   -3.3270 n         1 MOL     -0.213536
    178 C54        -5.7570   -0.0010   -4.6110 c3        1 MOL     -0.157657
    179 H86        -4.8990   -0.0930   -5.2760 h1        1 MOL      0.090097
    180 H87        -6.1890   -0.9860   -4.4380 h1        1 MOL      0.090097
    181 H88        -6.5030    0.6490   -5.0690 h1        1 MOL      0.090097
    182 H89        -5.6420    0.0870   -2.5060 hn        1 MOL      0.197494
    183 Ca1         1.8360   -0.4120    1.3840 Ca        1 MOL      1.830647
    184 O25         0.0480   -0.1330    3.4710 oh        1 MOL     -0.869572
    185 H90        -0.8200    0.0660    3.8200 ho        1 MOL      0.391334
    186 H91         0.6310    0.4630    3.9430 ho        1 MOL      0.391334
    187 O26         1.4330   -3.0230    2.3480 oh        1 MOL     -0.869572
    188 H92         1.3400   -3.9040    2.7010 ho        1 MOL      0.391334
    189 H93         2.1720   -2.6430    2.8300 ho        1 MOL      0.391334
@<TRIPOS>BOND
     1    1    2 1   
     2    1    4 1   
     3    1    5 1   
     4    1    6 1   
     5    2    3 2   
     6    2    7 1   
     7    7    8 1   
     8    7   15 1   
     9    8    9 1   
    10    8   11 1   
    11    8   16 1   
    12    9   10 2   
    13    9   19 1   
    14   11   12 1   
    15   11   17 1   
    16   11   18 1   
    17   12   13 1   
    18   12   14 1   
    19   19   20 1   
    20   19   28 1   
    21   20   21 1   
    22   20   23 1   
    23   20   29 1   
    24   21   22 2   
    25   21   41 1   
    26   23   24 1   
    27   23   30 1   
    28   23   31 1   
    29   24   25 1   
    30   24   32 1   
    31   24   33 1   
    32   25   26 1   
    33   25   34 1   
    34   25   35 1   
    35   26   27 1   
    36   26   36 1   
    37   26   37 1   
    38   27   38 1   
    39   27   39 1   
    40   27   40 1   
    41   41   42 1   
    42   41   49 1   
    43   42   43 1   
    44   42   45 1   
    45   42   50 1   
    46   43   44 2   
    47   43   53 1   
    48   45   46 1   
    49   45   51 1   
    50   45   52 1   
    51   46   47 1   
    52   46   48 1   
    53   53   54 1   
    54   53   57 1   
    55   54   55 1   
    56   54   58 1   
    57   54   59 1   
    58   55   56 2   
    59   55   60 1   
    60   60   61 1   
    61   60   68 1   
    62   61   62 1   
    63   61   64 1   
    64   61   69 1   
    65   62   63 2   
    66   62   72 1   
    67   64   65 1   
    68   64   70 1   
    69   64   71 1   
    70   65   66 1   
    71   65   67 1   
    72   72   73 1   
    73   72   76 1   
    74   73   74 1   
    75   73   77 1   
    76   73   78 1   
    77   74   75 2   
    78   74   79 1   
    79   79   80 1   
    80   79   86 1   
    81   80   81 1   
    82   80   83 1   
    83   80   87 1   
    84   81   82 2   
    85   81   93 1   
    86   83   84 1   
    87   83   85 1   
    88   83   88 1   
    89   84   90 1   
    90   84   91 1   
    91   84   92 1   
    92   85   89 1   
    93   93   94 1   
    94   93  101 1   
    95   94   95 1   
    96   94   97 1   
    97   94  102 1   
    98   95   96 2   
    99   95  112 1   
   100   97   98 1   
   101   97   99 1   
   102   97  103 1   
   103   98  100 1   
   104   98  104 1   
   105   98  105 1   
   106   99  106 1   
   107   99  107 1   
   108   99  108 1   
   109  100  109 1   
   110  100  110 1   
   111  100  111 1   
   112  112  113 1   
   113  112  119 1   
   114  113  114 1   
   115  113  116 1   
   116  113  120 1   
   117  114  115 2   
   118  114  126 1   
   119  116  117 1   
   120  116  118 1   
   121  116  121 1   
   122  117  123 1   
   123  117  124 1   
   124  117  125 1   
   125  118  122 1   
   126  126  127 1   
   127  126  133 1   
   128  127  128 1   
   129  127  130 1   
   130  127  134 1   
   131  128  129 2   
   132  128  140 1   
   133  130  131 1   
   134  130  132 1   
   135  130  135 1   
   136  131  137 1   
   137  131  138 1   
   138  131  139 1   
   139  132  136 1   
   140  140  141 1   
   141  140  149 1   
   142  141  142 1   
   143  141  144 1   
   144  141  150 1   
   145  142  143 2   
   146  142  162 1   
   147  144  145 1   
   148  144  151 1   
   149  144  152 1   
   150  145  146 1   
   151  145  153 1   
   152  145  154 1   
   153  146  147 1   
   154  146  155 1   
   155  146  156 1   
   156  147  148 1   
   157  147  157 1   
   158  147  158 1   
   159  148  159 1   
   160  148  160 1   
   161  148  161 1   
   162  162  163 1   
   163  162  171 1   
   164  163  164 1   
   165  163  166 1   
   166  163  172 1   
   167  164  165 2   
   168  164  177 1   
   169  166  167 1   
   170  166  173 1   
   171  166  174 1   
   172  167  168 1   
   173  167  175 1   
   174  167  176 1   
   175  168  169 1   
   176  168  170 1   
   177  177  178 1   
   178  177  182 1   
   179  178  179 1   
   180  178  180 1   
   181  178  181 1   
   182  184  185 1   
   183  184  186 1   
   184  187  188 1   
   185  187  189 1   
@<TRIPOS>SUBSTRUCTURE
     1 MOL         1 TEMP              0 ****  ****    0 ROOT
