@<TRIPOS>MOLECULE
MOL
  172   171     1     0     0
SMALL
resp


@<TRIPOS>ATOM
      1 C1          0.1150    3.6530    5.6520 c3        1 MOL     -0.420042
      2 C2         -0.3170    3.2600    4.2930 c         1 MOL      0.788783
      3 O1          0.3350    3.7360    3.3520 o         1 MOL     -0.582433
      4 H1         -0.6110    4.3470    6.0770 hc        1 MOL      0.103854
      5 H2          0.1810    2.7660    6.2830 hc        1 MOL      0.103854
      6 H3          1.0900    4.1350    5.5980 hc        1 MOL      0.103854
      7 N1         -1.4220    2.4740    4.0840 n         1 MOL     -0.753034
      8 C3         -2.0640    2.2010    2.7050 c3        1 MOL      0.316410
      9 C4         -2.5660    3.4790    2.1110 c         1 MOL      0.458675
     10 O2         -3.6280    4.0070    2.5380 o         1 MOL     -0.593185
     11 C5         -3.1650    1.1670    2.8680 c3        1 MOL     -0.125182
     12 C6         -3.7390    0.7040    1.5140 c         1 MOL      0.659249
     13 O3         -4.8780    0.2400    1.4960 o         1 MOL     -0.667438
     14 O4         -3.1420    0.9490    0.4350 o         1 MOL     -0.667438
     15 H4         -1.6890    1.8390    4.8220 hn        1 MOL      0.325236
     16 H5         -1.3570    1.7350    2.0330 h1        1 MOL      0.019802
     17 H6         -3.9770    1.5080    3.5180 hc        1 MOL      0.022420
     18 H7         -2.7250    0.2860    3.3370 hc        1 MOL      0.022420
     19 N2         -2.0600    3.9140    0.9730 n         1 MOL     -0.221975
     20 C7         -2.3270    5.2030    0.4540 c3        1 MOL      0.126229
     21 C8         -3.4250    5.1280   -0.6080 c         1 MOL      0.275501
     22 O5         -3.9450    6.1640   -1.0340 o         1 MOL     -0.553317
     23 C9         -1.0250    5.6630   -0.2810 c3        1 MOL     -0.158016
     24 H8         -1.4020    3.3980    0.4000 hn        1 MOL      0.173214
     25 H9         -2.5530    5.9490    1.2050 h1        1 MOL      0.061608
     26 H10        -0.2770    5.7490    0.5180 hc        1 MOL      0.043917
     27 H11        -0.6880    4.8730   -0.9560 hc        1 MOL      0.043917
     28 H12        -1.0950    6.6370   -0.7720 hc        1 MOL      0.043917
     29 N3         -3.7250    3.9550   -1.1570 n         1 MOL     -0.042238
     30 C10        -4.7910    3.7370   -2.1890 c3        1 MOL     -0.012137
     31 C11        -6.0350    2.9370   -1.6240 c         1 MOL      0.435980
     32 O6         -7.0150    2.8640   -2.3720 o         1 MOL     -0.526624
     33 C12        -4.1710    3.0550   -3.3520 c3        1 MOL      0.013455
     34 C13        -3.4900    1.7280   -3.1390 c         1 MOL      0.745108
     35 O7         -2.4130    1.4020   -3.6870 o         1 MOL     -0.757796
     36 O8         -4.0210    0.9820   -2.3180 o         1 MOL     -0.757796
     37 H13        -3.2110    3.1320   -0.8520 hn        1 MOL      0.069291
     38 H14        -5.1930    4.7060   -2.4670 h1        1 MOL      0.080085
     39 H15        -3.3600    3.7080   -3.6890 hc        1 MOL     -0.016289
     40 H16        -4.8570    3.0100   -4.2060 hc        1 MOL     -0.016289
     41 N4         -6.0940    2.3790   -0.3900 n         1 MOL     -0.282840
     42 C14        -7.3020    1.8830    0.1370 c3        1 MOL     -0.147198
     43 C15        -7.7670    0.6140   -0.5340 c         1 MOL      0.481869
     44 O9         -8.9630    0.3530   -0.5000 o         1 MOL     -0.594383
     45 H17        -5.2690    2.3410    0.1940 hn        1 MOL      0.245346
     46 H18        -8.0690    2.6590    0.1010 h1        1 MOL      0.097571
     47 H19        -7.0490    1.7000    1.1750 h1        1 MOL      0.097571
     48 N5         -6.8340   -0.1890   -1.0570 n         1 MOL     -0.156913
     49 C16        -6.9730   -1.5650   -1.5570 c3        1 MOL     -0.120392
     50 C17        -6.7420   -2.6550   -0.4470 c         1 MOL      0.502161
     51 O10        -6.9280   -3.8500   -0.7940 o         1 MOL     -0.557531
     52 C18        -6.0980   -1.7300   -2.8390 c3        1 MOL     -0.098533
     53 C19        -4.5660   -1.9700   -2.6180 c         1 MOL      0.461283
     54 N6         -3.8440   -2.2650   -3.6790 n         1 MOL     -0.615593
     55 O11        -4.0200   -1.9150   -1.5170 o         1 MOL     -0.456084
     56 H20        -5.9510    0.3030   -1.0380 hn        1 MOL      0.180033
     57 H21        -8.0220   -1.5470   -1.8530 h1        1 MOL      0.112796
     58 H22        -6.1750   -0.8220   -3.4530 hc        1 MOL      0.059553
     59 H23        -6.5820   -2.5290   -3.3930 hc        1 MOL      0.059553
     60 H24        -4.3780   -2.3100   -4.5320 hn        1 MOL      0.312256
     61 H25        -2.8550   -2.3110   -3.4630 hn        1 MOL      0.312256
     62 N7         -6.4790   -2.2590    0.7980 n         1 MOL     -0.287481
     63 C20        -6.4160   -3.2390    1.8860 c3        1 MOL     -0.140424
     64 C21        -5.0770   -4.0960    1.8330 c         1 MOL      0.514482
     65 O12        -5.1110   -5.1080    2.5370 o         1 MOL     -0.565378
     66 H26        -6.0850   -1.3360    0.9150 hn        1 MOL      0.241835
     67 H27        -7.2740   -3.9050    1.8850 h1        1 MOL      0.103492
     68 H28        -6.3980   -2.6540    2.8160 h1        1 MOL      0.103492
     69 N8         -3.9750   -3.6250    1.1560 n         1 MOL     -0.221620
     70 C22        -2.6310   -4.1730    1.2360 c3        1 MOL     -0.066375
     71 C23        -1.5370   -3.0860    1.2540 c         1 MOL      0.502680
     72 O13        -1.6870   -1.9880    0.7360 o         1 MOL     -0.547433
     73 C24        -2.3520   -5.2500    0.2290 c3        1 MOL      0.305885
     74 C25        -3.0140   -6.5900    0.4510 c3        1 MOL     -0.410765
     75 O14        -2.7520   -4.7520   -1.0450 oh        1 MOL     -0.605576
     76 H29        -4.1500   -2.9150    0.4670 hn        1 MOL      0.168776
     77 H30        -2.5740   -4.6380    2.2240 h1        1 MOL      0.056613
     78 H31        -1.2770   -5.4010    0.2850 h1        1 MOL      0.018836
     79 H32        -3.4670   -5.3160   -1.3290 ho        1 MOL      0.410293
     80 H33        -2.7400   -7.1220    1.3570 hc        1 MOL      0.108947
     81 H34        -4.0910   -6.5220    0.3370 hc        1 MOL      0.108947
     82 H35        -2.7150   -7.2370   -0.3750 hc        1 MOL      0.108947
     83 N9         -0.3540   -3.4780    1.7630 n         1 MOL     -0.353754
     84 C26         0.8790   -2.6210    1.9040 c3        1 MOL     -0.050770
     85 C27         1.7160   -2.8780    0.6160 c         1 MOL      0.470595
     86 O15         2.2970   -3.9230    0.4520 o         1 MOL     -0.563533
     87 C28         1.5770   -2.7800    3.2190 c3        1 MOL      0.166092
     88 C29         0.7070   -2.2470    4.4180 c3        1 MOL      0.051775
     89 C30         2.9300   -2.1060    3.0350 c3        1 MOL     -0.152085
     90 C31         1.4560   -2.2460    5.7690 c3        1 MOL     -0.258735
     91 H36        -0.3070   -4.3650    2.2280 hn        1 MOL      0.248567
     92 H37         0.5620   -1.5780    1.9010 h1        1 MOL      0.123276
     93 H38         1.6740   -3.8600    3.3480 hc        1 MOL     -0.021096
     94 H39        -0.1400   -2.9370    4.3550 hc        1 MOL     -0.009342
     95 H40         0.3440   -1.2470    4.1860 hc        1 MOL     -0.009342
     96 H41         2.8280   -1.0600    2.7170 hc        1 MOL      0.021643
     97 H42         3.4450   -2.1710    3.9970 hc        1 MOL      0.021643
     98 H43         3.5600   -2.5040    2.2350 hc        1 MOL      0.021643
     99 H44         0.7360   -2.0680    6.5680 hc        1 MOL      0.062693
    100 H45         2.0280   -3.1620    5.9590 hc        1 MOL      0.062693
    101 H46         2.1130   -1.3730    5.7720 hc        1 MOL      0.062693
    102 N10         1.8290   -1.8540   -0.2910 n         1 MOL     -0.052249
    103 C32         2.8830   -1.8280   -1.3180 c3        1 MOL     -0.005054
    104 C33         4.3070   -1.6030   -0.7560 c         1 MOL      0.474849
    105 O16         4.3940   -1.1460    0.3710 o         1 MOL     -0.287670
    106 C34         2.5660   -0.8500   -2.4440 c3        1 MOL     -0.401993
    107 C35         1.1910   -1.0620   -3.0160 c         1 MOL      0.905007
    108 O17         0.2810   -0.2710   -2.8410 o         1 MOL     -0.734621
    109 O18         0.9840   -2.0400   -3.7470 o         1 MOL     -0.734621
    110 H47         1.4580   -0.9640    0.0100 hn        1 MOL     -0.108270
    111 H48         2.8390   -2.7970   -1.8290 h1        1 MOL      0.053948
    112 H49         3.2860   -1.0210   -3.2370 hc        1 MOL      0.104029
    113 H50         2.6080    0.1980   -2.1440 hc        1 MOL      0.104029
    114 N11         5.3700   -1.7930   -1.6120 n         1 MOL     -0.654452
    115 C36         6.7250   -1.4240   -1.2070 c3        1 MOL      0.314407
    116 C37         6.8600    0.1090   -0.9310 c         1 MOL      0.281167
    117 O19         7.4350    0.4360    0.0930 o         1 MOL     -0.474785
    118 C38         7.7200   -1.9130   -2.2300 c3        1 MOL     -0.176461
    119 C39         9.0970   -1.6100   -1.7780 ca        1 MOL      0.263718
    120 C40         9.6900   -2.4490   -0.7940 ca        1 MOL     -0.345088
    121 C41         9.8290   -0.6170   -2.3270 ca        1 MOL     -0.345088
    122 C42        11.0060   -2.1390   -0.3260 ca        1 MOL      0.052367
    123 C43        11.0970   -0.2150   -1.7710 ca        1 MOL      0.052367
    124 C44        11.7760   -1.0220   -0.8000 ca        1 MOL     -0.291246
    125 H51         5.1330   -2.1160   -2.5440 hn        1 MOL      0.354379
    126 H52         6.9340   -1.9040   -0.2450 h1        1 MOL      0.063804
    127 H53         7.6480   -1.5760   -3.2720 hc        1 MOL      0.058922
    128 H54         7.6290   -2.9870   -2.3700 hc        1 MOL      0.058922
    129 H55         9.1940   -3.3260   -0.4270 ha        1 MOL      0.160492
    130 H56         9.3410   -0.0050   -3.0730 ha        1 MOL      0.160492
    131 H57        11.4120   -2.8140    0.4070 ha        1 MOL      0.074542
    132 H58        11.5610    0.6120   -2.2970 ha        1 MOL      0.074542
    133 H59        12.7010   -0.6220   -0.4140 ha        1 MOL      0.156140
    134 N12         6.3180    1.1070   -1.6800 n         1 MOL     -0.070565
    135 C45         6.2910    2.5550   -1.2490 c3        1 MOL      0.171161
    136 C46         5.5460    2.8290    0.0900 c         1 MOL      0.215121
    137 O20         5.8170    3.7820    0.8420 o         1 MOL     -0.485119
    138 C47         5.5510    3.3170   -2.3420 c3        1 MOL     -0.217521
    139 C48         5.9380    2.4710   -3.5550 c3        1 MOL      0.258671
    140 C49         5.8380    1.0660   -3.0330 c3        1 MOL     -0.219668
    141 H60         7.3050    2.9440   -1.1290 h1        1 MOL      0.036384
    142 H61         4.4730    3.2550   -2.2490 hc        1 MOL      0.075704
    143 H62         5.9470    4.3340   -2.3180 hc        1 MOL      0.075704
    144 H63         5.4910    2.7830   -4.5020 hc        1 MOL     -0.038713
    145 H64         6.9950    2.6440   -3.7620 hc        1 MOL     -0.038713
    146 H65         4.8000    0.7450   -3.0510 h1        1 MOL      0.053368
    147 H66         6.5750    0.4910   -3.5920 h1        1 MOL      0.053368
    148 N13         4.5830    1.9630    0.4420 n         1 MOL     -0.051400
    149 C50         3.6990    2.0960    1.6690 c3        1 MOL     -0.179806
    150 C51         4.4890    1.4390    2.8450 c         1 MOL      0.422855
    151 O21         4.4580    1.9600    3.9950 o         1 MOL     -0.580212
    152 C52         2.3730    1.4520    1.2750 c3        1 MOL      0.064763
    153 C53         1.7220    2.2550    0.0690 c3        1 MOL     -0.122730
    154 C54         0.4040    1.5730   -0.2660 c         1 MOL      0.550334
    155 O22        -0.5770    2.1380   -0.8740 o         1 MOL     -0.657368
    156 O23         0.1600    0.3930    0.0620 o         1 MOL     -0.657368
    157 H67         4.3770    1.1790   -0.1610 hn        1 MOL      0.169024
    158 H68         3.5290    3.1340    1.9440 h1        1 MOL      0.144748
    159 H69         1.6520    1.4160    2.0890 hc        1 MOL      0.059809
    160 H70         2.5090    0.3910    1.0680 hc        1 MOL      0.059809
    161 H71         2.3860    2.1010   -0.7790 hc        1 MOL      0.055784
    162 H72         1.6090    3.3060    0.3050 hc        1 MOL      0.055784
    163 N14         5.2500    0.3950    2.6240 n         1 MOL      0.066158
    164 C55         6.2170   -0.1640    3.5720 c3        1 MOL     -0.115653
    165 H73         6.1410    0.3650    4.5220 h1        1 MOL      0.052547
    166 H74         6.0040   -1.2220    3.7280 h1        1 MOL      0.052547
    167 H75         7.2250   -0.0510    3.1730 h1        1 MOL      0.052547
    168 H76         5.1000    0.0280    1.6910 hn        1 MOL     -0.048257
    169 Ca1        -1.8370   -0.0420   -1.3820 Ca        1 MOL      1.754414
    170 O24        -1.2070   -2.5690   -2.2240 oh        1 MOL     -0.780678
    171 H77        -0.3370   -2.6490   -2.6180 ho        1 MOL      0.372741
    172 H78        -1.3700   -3.4330   -1.8370 ho        1 MOL      0.372741
@<TRIPOS>BOND
     1    1    2 1   
     2    1    4 1   
     3    1    5 1   
     4    1    6 1   
     5    2    3 2   
     6    2    7 1   
     7    7    8 1   
     8    7   15 1   
     9    8    9 1   
    10    8   11 1   
    11    8   16 1   
    12    9   10 2   
    13    9   19 1   
    14   11   12 1   
    15   11   17 1   
    16   11   18 1   
    17   12   13 1   
    18   12   14 1   
    19   19   20 1   
    20   19   24 1   
    21   20   21 1   
    22   20   23 1   
    23   20   25 1   
    24   21   22 2   
    25   21   29 1   
    26   23   26 1   
    27   23   27 1   
    28   23   28 1   
    29   29   30 1   
    30   29   37 1   
    31   30   31 1   
    32   30   33 1   
    33   30   38 1   
    34   31   32 2   
    35   31   41 1   
    36   33   34 1   
    37   33   39 1   
    38   33   40 1   
    39   34   35 1   
    40   34   36 1   
    41   41   42 1   
    42   41   45 1   
    43   42   43 1   
    44   42   46 1   
    45   42   47 1   
    46   43   44 2   
    47   43   48 1   
    48   48   49 1   
    49   48   56 1   
    50   49   50 1   
    51   49   52 1   
    52   49   57 1   
    53   50   51 2   
    54   50   62 1   
    55   52   53 1   
    56   52   58 1   
    57   52   59 1   
    58   53   54 1   
    59   53   55 2   
    60   54   60 1   
    61   54   61 1   
    62   62   63 1   
    63   62   66 1   
    64   63   64 1   
    65   63   67 1   
    66   63   68 1   
    67   64   65 2   
    68   64   69 1   
    69   69   70 1   
    70   69   76 1   
    71   70   71 1   
    72   70   73 1   
    73   70   77 1   
    74   71   72 2   
    75   71   83 1   
    76   73   74 1   
    77   73   75 1   
    78   73   78 1   
    79   74   80 1   
    80   74   81 1   
    81   74   82 1   
    82   75   79 1   
    83   83   84 1   
    84   83   91 1   
    85   84   85 1   
    86   84   87 1   
    87   84   92 1   
    88   85   86 2   
    89   85  102 1   
    90   87   88 1   
    91   87   89 1   
    92   87   93 1   
    93   88   90 1   
    94   88   94 1   
    95   88   95 1   
    96   89   96 1   
    97   89   97 1   
    98   89   98 1   
    99   90   99 1   
   100   90  100 1   
   101   90  101 1   
   102  102  103 1   
   103  102  110 1   
   104  103  104 1   
   105  103  106 1   
   106  103  111 1   
   107  104  105 2   
   108  104  114 1   
   109  106  107 1   
   110  106  112 1   
   111  106  113 1   
   112  107  108 1   
   113  107  109 1   
   114  114  115 1   
   115  114  125 1   
   116  115  116 1   
   117  115  118 1   
   118  115  126 1   
   119  116  117 2   
   120  116  134 1   
   121  118  119 1   
   122  118  127 1   
   123  118  128 1   
   124  119  120 ar  
   125  119  121 ar  
   126  120  122 ar  
   127  120  129 1   
   128  121  123 ar  
   129  121  130 1   
   130  122  124 ar  
   131  122  131 1   
   132  123  124 ar  
   133  123  132 1   
   134  124  133 1   
   135  134  135 1   
   136  134  140 1   
   137  135  136 1   
   138  135  138 1   
   139  135  141 1   
   140  136  137 2   
   141  136  148 1   
   142  138  139 1   
   143  138  142 1   
   144  138  143 1   
   145  139  140 1   
   146  139  144 1   
   147  139  145 1   
   148  140  146 1   
   149  140  147 1   
   150  148  149 1   
   151  148  157 1   
   152  149  150 1   
   153  149  152 1   
   154  149  158 1   
   155  150  151 2   
   156  150  163 1   
   157  152  153 1   
   158  152  159 1   
   159  152  160 1   
   160  153  154 1   
   161  153  161 1   
   162  153  162 1   
   163  154  155 1   
   164  154  156 1   
   165  163  164 1   
   166  163  168 1   
   167  164  165 1   
   168  164  166 1   
   169  164  167 1   
   170  170  171 1   
   171  170  172 1   
@<TRIPOS>SUBSTRUCTURE
     1 MOL         1 TEMP              0 ****  ****    0 ROOT
