@<TRIPOS>MOLECULE
MOL
  189   185     1     0     0
SMALL
resp


@<TRIPOS>ATOM
      1 C1          1.6020    2.8660   -5.9110 c3        1 MOL     -0.359141
      2 C2          1.4630    2.5430   -4.4490 c         1 MOL      0.715191
      3 O1          0.7120    3.1960   -3.7190 o         1 MOL     -0.603609
      4 H1          2.2070    2.0990   -6.3950 hc        1 MOL      0.085326
      5 H2          0.6150    2.8950   -6.3730 hc        1 MOL      0.085326
      6 H3          2.0870    3.8360   -6.0250 hc        1 MOL      0.085326
      7 N1          2.1190    1.4200   -4.0960 n         1 MOL     -0.533085
      8 C3          2.3540    1.0820   -2.6960 c3        1 MOL     -0.006840
      9 C4          3.1180    2.2540   -2.0530 c         1 MOL      0.381495
     10 O2          4.2930    2.4710   -2.3290 o         1 MOL     -0.519740
     11 C5          3.3210   -0.1240   -2.5970 c3        1 MOL     -0.069199
     12 C6          3.8590   -0.3250   -1.2040 c         1 MOL      0.443118
     13 O3          5.0590   -0.7720   -1.0880 o         1 MOL     -0.542524
     14 O4          3.1950    0.0020   -0.1560 o         1 MOL     -0.542524
     15 H4          2.4410    0.8680   -4.8790 hn        1 MOL      0.335038
     16 H5          1.4200    0.8800   -2.1540 h1        1 MOL      0.038123
     17 H6          4.1160   -0.0950   -3.3400 hc        1 MOL      0.044144
     18 H7          2.7660   -1.0260   -2.8660 hc        1 MOL      0.044144
     19 N2          2.5320    2.9470   -1.0540 n         1 MOL     -0.019491
     20 C7          2.9640    4.2920   -0.6730 c3        1 MOL     -0.004863
     21 C8          3.9310    4.3340    0.5310 c         1 MOL      0.321374
     22 O5          4.7340    5.3070    0.5910 o         1 MOL     -0.579961
     23 C9          1.7060    5.1610   -0.5300 c3        1 MOL      0.199270
     24 C10         1.9880    6.6540   -0.3210 c3        1 MOL     -0.368074
     25 C11         2.5190    7.4780   -1.4370 c3        1 MOL      0.096927
     26 C12         2.5720    8.8690   -0.8550 c3        1 MOL      0.059886
     27 N3          3.0910    9.8830   -1.8510 n4        1 MOL     -0.400534
     28 H8          1.5760    2.6820   -0.8460 hn        1 MOL      0.117313
     29 H9          3.4120    4.7520   -1.5470 h1        1 MOL      0.048671
     30 H10         1.0250    4.7770    0.2240 hc        1 MOL     -0.006658
     31 H11         1.1630    5.1850   -1.4750 hc        1 MOL     -0.006658
     32 H12         2.6210    6.7530    0.5620 hc        1 MOL      0.102271
     33 H13         1.0330    7.0210    0.0390 hc        1 MOL      0.102271
     34 H14         1.9100    7.4760   -2.3380 hc        1 MOL      0.033470
     35 H15         3.4970    7.2170   -1.8330 hc        1 MOL      0.033470
     36 H16         3.1600    8.8320    0.0720 hx        1 MOL      0.070232
     37 H17         1.5740    9.0850   -0.4700 hx        1 MOL      0.070232
     38 H18         2.3830   10.2660   -2.4570 hn        1 MOL      0.333428
     39 H19         3.4230   10.6660   -1.3060 hn        1 MOL      0.333428
     40 H20         3.9520    9.6730   -2.3340 hn        1 MOL      0.333428
     41 N4          3.7930    3.3630    1.4390 n         1 MOL     -0.094258
     42 C13         4.6660    3.1330    2.5940 c3        1 MOL     -0.016107
     43 C14         5.6550    1.9790    2.4740 c         1 MOL      0.495608
     44 O6          6.1130    1.4380    3.4580 o         1 MOL     -0.471360
     45 C15         3.7820    3.0330    3.8730 c3        1 MOL     -0.293135
     46 C16         2.7570    1.8780    3.8760 c         1 MOL      0.894140
     47 O7          2.6260    1.2140    2.8320 o         1 MOL     -0.736633
     48 O8          2.1210    1.6280    4.8780 o         1 MOL     -0.736633
     49 H21         3.1210    2.6510    1.1980 hn        1 MOL      0.079668
     50 H22         5.2330    4.0540    2.7170 h1        1 MOL      0.088064
     51 H23         3.1760    3.9250    4.0200 hc        1 MOL      0.054486
     52 H24         4.4680    2.7970    4.6880 hc        1 MOL      0.054486
     53 N5          5.9610    1.5450    1.2580 n         1 MOL     -0.379800
     54 C17         7.0810    0.6850    0.9400 c3        1 MOL     -0.138413
     55 C18         7.1480   -0.6370    1.6940 c         1 MOL      0.541925
     56 O9          8.1990   -0.9480    2.2370 o         1 MOL     -0.601307
     57 H25         5.3860    1.7960    0.4740 hn        1 MOL      0.314543
     58 H26         8.0130    1.1970    1.1820 h1        1 MOL      0.082563
     59 H27         6.9580    0.4350   -0.1070 h1        1 MOL      0.082563
     60 N6          6.1320   -1.4290    1.5780 n         1 MOL     -0.158700
     61 C19         6.1720   -2.8460    1.9920 c3        1 MOL     -0.060534
     62 C20         6.1400   -3.8150    0.8280 c         1 MOL      0.394898
     63 O10         6.3240   -4.9880    0.9850 o         1 MOL     -0.525746
     64 C21         5.0280   -3.0400    3.0090 c3        1 MOL     -0.125092
     65 C22         3.6890   -2.5880    2.5580 c         1 MOL      0.696211
     66 O11         3.0510   -1.8390    3.2820 o         1 MOL     -0.718020
     67 O12         3.2850   -2.7880    1.3670 o         1 MOL     -0.718020
     68 H28         5.3390   -0.9800    1.1400 hn        1 MOL      0.142756
     69 H29         7.0200   -3.0860    2.6380 h1        1 MOL      0.133720
     70 H30         5.3910   -2.5600    3.9270 hc        1 MOL      0.047202
     71 H31         4.9800   -4.1030    3.2660 hc        1 MOL      0.047202
     72 N7          5.9680   -3.3010   -0.4260 n         1 MOL     -0.159345
     73 C23         5.8820   -4.1030   -1.6970 c3        1 MOL     -0.238139
     74 C24         4.4600   -4.6040   -1.9020 c         1 MOL      0.591718
     75 O13         4.2870   -5.5400   -2.6130 o         1 MOL     -0.574791
     76 H32         5.8210   -2.3020   -0.4920 hn        1 MOL      0.113113
     77 H33         6.6640   -4.8620   -1.6510 h1        1 MOL      0.120196
     78 H34         6.1140   -3.3910   -2.5000 h1        1 MOL      0.120196
     79 N8          3.5000   -4.0850   -1.1400 n         1 MOL     -0.283841
     80 C25         2.1060   -4.6070   -1.2100 c3        1 MOL     -0.200946
     81 C26         1.1170   -3.4810   -1.2050 c         1 MOL      0.758167
     82 O14         1.2510   -2.5140   -0.4220 o         1 MOL     -0.680084
     83 C27         1.7970   -5.5790   -0.1120 c3        1 MOL      0.484141
     84 C28         2.6110   -6.8330   -0.0370 c3        1 MOL     -0.422266
     85 O15         1.8240   -4.9400    1.1760 oh        1 MOL     -0.662627
     86 H35         3.7350   -3.4550   -0.3930 hn        1 MOL      0.234002
     87 H36         1.9950   -5.2080   -2.1090 h1        1 MOL      0.074875
     88 H37         0.7740   -5.9150   -0.2770 h1        1 MOL     -0.021784
     89 H38         2.5690   -4.3290    1.2100 ho        1 MOL      0.418592
     90 H39         2.3130   -7.4120    0.8330 hc        1 MOL      0.108963
     91 H40         2.5620   -7.4430   -0.9300 hc        1 MOL      0.108963
     92 H41         3.6390   -6.5400    0.1840 hc        1 MOL      0.108963
     93 N9          0.0970   -3.5820   -2.0010 n         1 MOL     -0.667902
     94 C29        -1.0280   -2.6230   -2.1380 c3        1 MOL      0.055411
     95 C30        -2.2140   -3.0640   -1.2920 c         1 MOL      0.573607
     96 O16        -2.7400   -4.1610   -1.4690 o         1 MOL     -0.582263
     97 C31        -1.3880   -2.4080   -3.6560 c3        1 MOL      0.010470
     98 C32        -0.0990   -1.7020   -4.2780 c3        1 MOL      0.249374
     99 C33        -2.6560   -1.5830   -3.8730 c3        1 MOL     -0.239752
    100 C34        -0.2600   -1.2880   -5.7290 c3        1 MOL     -0.383482
    101 H42         0.0320   -4.4430   -2.5280 hn        1 MOL      0.320888
    102 H43        -0.7080   -1.6740   -1.7110 h1        1 MOL      0.125539
    103 H44        -1.5480   -3.3340   -4.2050 hc        1 MOL      0.036465
    104 H45         0.8480   -2.2550   -4.2400 hc        1 MOL     -0.028007
    105 H46         0.0520   -0.8500   -3.6210 hc        1 MOL     -0.028007
    106 H47        -3.4860   -1.8500   -3.2280 hc        1 MOL      0.041344
    107 H48        -2.5340   -0.5430   -3.5800 hc        1 MOL      0.041344
    108 H49        -2.9440   -1.6650   -4.9250 hc        1 MOL      0.041344
    109 H50         0.7130   -0.9820   -6.1060 hc        1 MOL      0.086120
    110 H51        -0.6750   -2.1640   -6.2310 hc        1 MOL      0.086120
    111 H52        -0.9720   -0.4620   -5.8290 hc        1 MOL      0.086120
    112 N10        -2.6550   -2.2370   -0.3810 n         1 MOL     -0.125747
    113 C35        -3.9200   -2.3970    0.3940 c3        1 MOL     -0.094030
    114 C36        -5.1650   -2.0640   -0.4640 c         1 MOL      0.290251
    115 O17        -5.1510   -1.5000   -1.5340 o         1 MOL     -0.253638
    116 C37        -4.0060   -1.6390    1.6530 c3        1 MOL      0.060459
    117 C38        -3.0240   -2.2150    2.7110 c3        1 MOL     -0.383154
    118 O18        -3.8060   -0.2810    1.5350 oh        1 MOL     -0.289277
    119 H53        -2.1240   -1.4230   -0.1110 hn        1 MOL      0.137061
    120 H54        -3.9370   -3.4510    0.6790 h1        1 MOL      0.101720
    121 H55        -4.9730   -1.7620    2.1460 h1        1 MOL      0.032080
    122 H56        -3.2880   -0.0610    2.3110 ho        1 MOL      0.338767
    123 H57        -2.0010   -2.0610    2.3920 hc        1 MOL      0.117403
    124 H58        -3.2020   -1.6800    3.6550 hc        1 MOL      0.117403
    125 H59        -3.2420   -3.2560    2.9450 hc        1 MOL      0.117403
    126 N11        -6.3520   -2.3980    0.1010 n         1 MOL     -0.211216
    127 C39        -7.6420   -1.7340   -0.3550 c3        1 MOL     -0.260760
    128 C40        -7.6730   -0.1590   -0.2960 c         1 MOL      0.437976
    129 O19        -8.1820    0.5160   -1.1340 o         1 MOL     -0.480426
    130 C41        -8.8540   -2.2860    0.3010 c3        1 MOL      0.255604
    131 C42        -9.1830   -3.7730    0.0050 c3        1 MOL     -0.469800
    132 O20        -8.6840   -2.3520    1.6590 oh        1 MOL     -0.630199
    133 H60        -6.3870   -2.9550    0.9390 hn        1 MOL      0.255698
    134 H61        -7.6910   -1.9470   -1.4270 h1        1 MOL      0.168727
    135 H62        -9.6990   -1.6230    0.1170 h1        1 MOL      0.077208
    136 H63        -9.3030   -3.0520    1.8950 ho        1 MOL      0.409549
    137 H64        -8.3420   -4.3590    0.3510 hc        1 MOL      0.136888
    138 H65       -10.1480   -4.0180    0.4700 hc        1 MOL      0.136888
    139 H66        -9.2130   -3.9980   -1.0620 hc        1 MOL      0.136888
    140 N12        -6.9350    0.4370    0.6380 n         1 MOL     -0.101465
    141 C43        -6.6780    1.8200    0.8250 c3        1 MOL     -0.146795
    142 C44        -5.7430    2.3940   -0.2350 c         1 MOL      0.412290
    143 O21        -5.9770    3.5050   -0.7500 o         1 MOL     -0.519878
    144 C45        -6.2400    2.1850    2.2570 c3        1 MOL     -0.106817
    145 C46        -7.2570    1.8650    3.4010 c3        1 MOL      0.115000
    146 C47        -6.7380    2.1090    4.8730 c3        1 MOL     -0.075272
    147 C48        -7.8120    1.8230    5.9330 c3        1 MOL      0.074733
    148 N13        -7.0750    2.1080    7.2140 n4        1 MOL     -0.273141
    149 H67        -6.3070   -0.1820    1.1350 hn        1 MOL      0.183846
    150 H68        -7.6320    2.3140    0.6440 h1        1 MOL      0.131885
    151 H69        -5.9560    3.2290    2.3620 hc        1 MOL      0.049026
    152 H70        -5.2970    1.6960    2.4850 hc        1 MOL      0.049026
    153 H71        -7.5320    0.8170    3.2940 hc        1 MOL     -0.012183
    154 H72        -8.2150    2.3870    3.3130 hc        1 MOL     -0.012183
    155 H73        -6.5180    3.1690    5.0080 hc        1 MOL      0.028969
    156 H74        -5.8660    1.4680    5.0350 hc        1 MOL      0.028969
    157 H75        -8.1960    0.8110    5.8110 hx        1 MOL      0.081436
    158 H76        -8.6100    2.5530    5.8620 hx        1 MOL      0.081436
    159 H77        -6.2200    1.5780    7.1740 hn        1 MOL      0.302935
    160 H78        -6.6700    3.0310    7.2250 hn        1 MOL      0.302935
    161 H79        -7.6660    1.9060    8.0060 hn        1 MOL      0.302935
    162 N14        -4.7570    1.6070   -0.6630 n         1 MOL      0.037794
    163 C49        -3.8400    1.9290   -1.7620 c3        1 MOL     -0.179588
    164 C50        -4.5970    1.7210   -3.1270 c         1 MOL      0.543919
    165 O22        -4.5060    2.5880   -3.9540 o         1 MOL     -0.552283
    166 C51        -2.4760    1.2190   -1.6210 c3        1 MOL     -0.020082
    167 C52        -1.7700    1.8300   -0.4220 c3        1 MOL      0.010004
    168 C53        -0.5790    0.9850    0.0530 c         1 MOL      0.611481
    169 O23        -0.6940   -0.2030    0.3810 o         1 MOL     -0.663641
    170 O24         0.5370    1.5250    0.2320 o         1 MOL     -0.663641
    171 H80        -4.7390    0.6720   -0.2620 hn        1 MOL     -0.152548
    172 H81        -3.6980    3.0090   -1.7850 h1        1 MOL      0.103927
    173 H82        -1.8500    1.3080   -2.5140 hc        1 MOL      0.069895
    174 H83        -2.7090    0.1850   -1.3620 hc        1 MOL      0.069895
    175 H84        -2.4040    1.9200    0.4610 hc        1 MOL     -0.011753
    176 H85        -1.4060    2.8470   -0.5320 hc        1 MOL     -0.011753
    177 N15        -5.4270    0.6850   -3.2540 n         1 MOL     -0.089100
    178 C54        -6.2400    0.3980   -4.4120 c3        1 MOL     -0.403652
    179 H86        -7.0810    1.0910   -4.4450 h1        1 MOL      0.133548
    180 H87        -5.6400    0.5140   -5.3150 h1        1 MOL      0.133548
    181 H88        -6.6140   -0.6240   -4.3520 h1        1 MOL      0.133548
    182 H89        -5.5740    0.0830   -2.4610 hn        1 MOL      0.147229
    183 Ca1         1.4950   -0.6950    1.4880 Ca        1 MOL      1.705135
    184 O25         0.0640    0.2160    3.8260 oh        1 MOL     -0.863755
    185 H90        -0.0430   -0.6310    4.2480 ho        1 MOL      0.399783
    186 H91         0.7920    0.6300    4.2870 ho        1 MOL      0.399783
    187 O26         0.4370   -2.9150    2.3420 oh        1 MOL     -0.863755
    188 H92         0.7530   -3.3590    3.1270 ho        1 MOL      0.399783
    189 H93         0.7690   -3.4410    1.6170 ho        1 MOL      0.399783
@<TRIPOS>BOND
     1    1    2 1   
     2    1    4 1   
     3    1    5 1   
     4    1    6 1   
     5    2    3 2   
     6    2    7 1   
     7    7    8 1   
     8    7   15 1   
     9    8    9 1   
    10    8   11 1   
    11    8   16 1   
    12    9   10 2   
    13    9   19 1   
    14   11   12 1   
    15   11   17 1   
    16   11   18 1   
    17   12   13 1   
    18   12   14 1   
    19   19   20 1   
    20   19   28 1   
    21   20   21 1   
    22   20   23 1   
    23   20   29 1   
    24   21   22 2   
    25   21   41 1   
    26   23   24 1   
    27   23   30 1   
    28   23   31 1   
    29   24   25 1   
    30   24   32 1   
    31   24   33 1   
    32   25   26 1   
    33   25   34 1   
    34   25   35 1   
    35   26   27 1   
    36   26   36 1   
    37   26   37 1   
    38   27   38 1   
    39   27   39 1   
    40   27   40 1   
    41   41   42 1   
    42   41   49 1   
    43   42   43 1   
    44   42   45 1   
    45   42   50 1   
    46   43   44 2   
    47   43   53 1   
    48   45   46 1   
    49   45   51 1   
    50   45   52 1   
    51   46   47 1   
    52   46   48 1   
    53   53   54 1   
    54   53   57 1   
    55   54   55 1   
    56   54   58 1   
    57   54   59 1   
    58   55   56 2   
    59   55   60 1   
    60   60   61 1   
    61   60   68 1   
    62   61   62 1   
    63   61   64 1   
    64   61   69 1   
    65   62   63 2   
    66   62   72 1   
    67   64   65 1   
    68   64   70 1   
    69   64   71 1   
    70   65   66 1   
    71   65   67 1   
    72   72   73 1   
    73   72   76 1   
    74   73   74 1   
    75   73   77 1   
    76   73   78 1   
    77   74   75 2   
    78   74   79 1   
    79   79   80 1   
    80   79   86 1   
    81   80   81 1   
    82   80   83 1   
    83   80   87 1   
    84   81   82 2   
    85   81   93 1   
    86   83   84 1   
    87   83   85 1   
    88   83   88 1   
    89   84   90 1   
    90   84   91 1   
    91   84   92 1   
    92   85   89 1   
    93   93   94 1   
    94   93  101 1   
    95   94   95 1   
    96   94   97 1   
    97   94  102 1   
    98   95   96 2   
    99   95  112 1   
   100   97   98 1   
   101   97   99 1   
   102   97  103 1   
   103   98  100 1   
   104   98  104 1   
   105   98  105 1   
   106   99  106 1   
   107   99  107 1   
   108   99  108 1   
   109  100  109 1   
   110  100  110 1   
   111  100  111 1   
   112  112  113 1   
   113  112  119 1   
   114  113  114 1   
   115  113  116 1   
   116  113  120 1   
   117  114  115 2   
   118  114  126 1   
   119  116  117 1   
   120  116  118 1   
   121  116  121 1   
   122  117  123 1   
   123  117  124 1   
   124  117  125 1   
   125  118  122 1   
   126  126  127 1   
   127  126  133 1   
   128  127  128 1   
   129  127  130 1   
   130  127  134 1   
   131  128  129 2   
   132  128  140 1   
   133  130  131 1   
   134  130  132 1   
   135  130  135 1   
   136  131  137 1   
   137  131  138 1   
   138  131  139 1   
   139  132  136 1   
   140  140  141 1   
   141  140  149 1   
   142  141  142 1   
   143  141  144 1   
   144  141  150 1   
   145  142  143 2   
   146  142  162 1   
   147  144  145 1   
   148  144  151 1   
   149  144  152 1   
   150  145  146 1   
   151  145  153 1   
   152  145  154 1   
   153  146  147 1   
   154  146  155 1   
   155  146  156 1   
   156  147  148 1   
   157  147  157 1   
   158  147  158 1   
   159  148  159 1   
   160  148  160 1   
   161  148  161 1   
   162  162  163 1   
   163  162  171 1   
   164  163  164 1   
   165  163  166 1   
   166  163  172 1   
   167  164  165 2   
   168  164  177 1   
   169  166  167 1   
   170  166  173 1   
   171  166  174 1   
   172  167  168 1   
   173  167  175 1   
   174  167  176 1   
   175  168  169 1   
   176  168  170 1   
   177  177  178 1   
   178  177  182 1   
   179  178  179 1   
   180  178  180 1   
   181  178  181 1   
   182  184  185 1   
   183  184  186 1   
   184  187  188 1   
   185  187  189 1   
@<TRIPOS>SUBSTRUCTURE
     1 MOL         1 TEMP              0 ****  ****    0 ROOT
