@<TRIPOS>MOLECULE
MOL
  189   185     1     0     0
SMALL
resp


@<TRIPOS>ATOM
      1 C1         -0.3990    4.0440    4.7050 c3        1 MOL     -0.370097
      2 C2         -0.7400    3.4130    3.3750 c         1 MOL      0.581761
      3 O1         -0.0110    3.5500    2.4040 o         1 MOL     -0.504432
      4 H1         -1.2710    4.0090    5.3570 hc        1 MOL      0.094417
      5 H2          0.4230    3.4970    5.1670 hc        1 MOL      0.094417
      6 H3         -0.1030    5.0810    4.5500 hc        1 MOL      0.094417
      7 N1         -1.8470    2.6120    3.3650 n         1 MOL     -0.523784
      8 C3         -2.5380    2.0630    2.2030 c3        1 MOL      0.059242
      9 C4         -3.3980    3.1460    1.4810 c         1 MOL      0.529163
     10 O2         -4.5840    3.0270    1.2030 o         1 MOL     -0.447156
     11 C5         -3.3630    0.7700    2.5280 c3        1 MOL     -0.120388
     12 C6         -3.9450    0.0430    1.3160 c         1 MOL      0.609874
     13 O3         -5.1410   -0.2950    1.4100 o         1 MOL     -0.622861
     14 O4         -3.2480   -0.1310    0.3310 o         1 MOL     -0.622861
     15 H4         -2.2490    2.3750    4.2520 hn        1 MOL      0.318089
     16 H5         -1.7370    1.6660    1.5830 h1        1 MOL      0.132553
     17 H6         -4.2110    1.1280    3.1060 hc        1 MOL      0.015973
     18 H7         -2.7180    0.1210    3.1180 hc        1 MOL      0.015973
     19 N2         -2.7580    4.2190    1.0510 n         1 MOL     -0.485448
     20 C7         -3.3980    5.2940    0.2820 c3        1 MOL     -0.013552
     21 C8         -4.0300    4.9020   -1.0760 c         1 MOL      0.473318
     22 O5         -4.7210    5.7500   -1.5480 o         1 MOL     -0.571464
     23 C9         -2.4840    6.4540    0.1720 c3        1 MOL      0.141582
     24 C10        -1.7120    6.7960    1.4600 c3        1 MOL      0.113888
     25 C11        -0.7550    7.9290    1.0320 c3        1 MOL     -0.072923
     26 C12         0.2980    8.1180    2.1610 c3        1 MOL      0.014538
     27 N3         -0.1800    9.0630    3.2310 n4        1 MOL     -0.528681
     28 H8         -1.8020    4.4100    1.3220 hn        1 MOL      0.237954
     29 H9         -4.1360    5.7850    0.9180 h1        1 MOL      0.076061
     30 H10        -2.9840    7.3930   -0.0690 hc        1 MOL     -0.010914
     31 H11        -1.7730    6.2790   -0.6370 hc        1 MOL     -0.010914
     32 H12        -1.0570    5.9690    1.7520 hc        1 MOL     -0.037912
     33 H13        -2.4330    7.0760    2.2310 hc        1 MOL     -0.037912
     34 H14        -1.3250    8.8120    0.7430 hc        1 MOL      0.049100
     35 H15        -0.2170    7.6350    0.1320 hc        1 MOL      0.049100
     36 H16         1.2080    8.5240    1.7180 hx        1 MOL      0.103573
     37 H17         0.5120    7.1220    2.5430 hx        1 MOL      0.103573
     38 H18         0.4920    9.0760    3.9830 hn        1 MOL      0.372843
     39 H19        -0.2550   10.0060    2.8690 hn        1 MOL      0.372843
     40 H20        -1.0700    8.6860    3.5210 hn        1 MOL      0.372843
     41 N4         -3.8780    3.7160   -1.6690 n         1 MOL     -0.316862
     42 C13        -4.6690    3.2560   -2.8600 c3        1 MOL      0.070329
     43 C14        -5.8860    2.3460   -2.4380 c         1 MOL      0.419950
     44 O6         -6.7040    2.0410   -3.2850 o         1 MOL     -0.530384
     45 C15        -3.6910    2.6050   -3.9540 c3        1 MOL     -0.425831
     46 C16        -2.7670    1.5810   -3.4440 c         1 MOL      0.872983
     47 O7         -1.9610    1.1030   -4.2850 o         1 MOL     -0.744439
     48 O8         -2.6160    1.3460   -2.2400 o         1 MOL     -0.744439
     49 H21        -3.3230    3.0180   -1.1950 hn        1 MOL      0.273312
     50 H22        -5.0320    4.1550   -3.3740 h1        1 MOL      0.105784
     51 H23        -3.2290    3.3650   -4.5800 hc        1 MOL      0.124102
     52 H24        -4.3080    1.9790   -4.5970 hc        1 MOL      0.124102
     53 N5         -5.9840    2.0110   -1.1360 n         1 MOL     -0.109014
     54 C17        -7.0970    1.2920   -0.4340 c3        1 MOL     -0.118556
     55 C18        -7.4340   -0.1210   -0.8320 c         1 MOL      0.568492
     56 O9         -8.6270   -0.4340   -0.8580 o         1 MOL     -0.598824
     57 H25        -5.1920    2.1620   -0.5290 hn        1 MOL      0.018881
     58 H26        -8.0000    1.8790   -0.5710 h1        1 MOL      0.083024
     59 H27        -6.9640    1.2500    0.6470 h1        1 MOL      0.083024
     60 N6         -6.4020   -0.9310   -1.1420 n         1 MOL     -0.322569
     61 C19        -6.5860   -2.2750   -1.7140 c3        1 MOL     -0.032348
     62 C20        -6.4380   -3.3500   -0.6310 c         1 MOL      0.373361
     63 O10        -6.4160   -4.4770   -1.0470 o         1 MOL     -0.486446
     64 C21        -5.6310   -2.4190   -2.9190 c3        1 MOL     -0.072705
     65 C22        -4.1820   -2.1520   -2.5540 c         1 MOL      0.667809
     66 O11        -3.6780   -2.5880   -1.4610 o         1 MOL     -0.708408
     67 O12        -3.4310   -1.4710   -3.2820 o         1 MOL     -0.708408
     68 H28        -5.4680   -0.5390   -1.1080 hn        1 MOL      0.250797
     69 H29        -7.5720   -2.4280   -2.1400 h1        1 MOL      0.119281
     70 H30        -5.9070   -1.7880   -3.7640 hc        1 MOL      0.035860
     71 H31        -5.7920   -3.4530   -3.2290 hc        1 MOL      0.035860
     72 N7         -6.4370   -2.9250    0.6470 n         1 MOL     -0.192046
     73 C23        -6.3470   -3.7560    1.8350 c3        1 MOL     -0.384743
     74 C24        -4.9190   -4.2080    2.1120 c         1 MOL      0.639277
     75 O13        -4.6380   -4.6970    3.2050 o         1 MOL     -0.602966
     76 H32        -6.4630   -1.9150    0.7270 hn        1 MOL      0.253876
     77 H33        -6.8420   -4.7240    1.7320 h1        1 MOL      0.167403
     78 H34        -6.6730   -3.0530    2.5950 h1        1 MOL      0.167403
     79 N8         -3.9180   -4.0260    1.2060 n         1 MOL     -0.168834
     80 C25        -2.5440   -4.6440    1.2720 c3        1 MOL     -0.293427
     81 C26        -1.3520   -3.6430    1.2410 c         1 MOL      0.770638
     82 O14        -1.3020   -2.7330    0.4130 o         1 MOL     -0.677762
     83 C27        -2.2890   -5.7510    0.2180 c3        1 MOL      0.517550
     84 C28        -2.7490   -7.1780    0.6050 c3        1 MOL     -0.316119
     85 O15        -2.9700   -5.3900   -0.9430 oh        1 MOL     -0.704955
     86 H35        -4.1040   -3.5460    0.3350 hn        1 MOL      0.114043
     87 H36        -2.5740   -5.0530    2.2820 h1        1 MOL      0.076011
     88 H37        -1.2210   -5.8580    0.0650 h1        1 MOL     -0.040335
     89 H38        -3.1140   -4.4440   -0.9920 ho        1 MOL      0.497060
     90 H39        -2.0050   -7.7930    1.1190 hc        1 MOL      0.076946
     91 H40        -3.6810   -7.2710    1.1640 hc        1 MOL      0.076946
     92 H41        -3.1200   -7.7330   -0.2540 hc        1 MOL      0.076946
     93 N9         -0.3790   -3.8060    2.1790 n         1 MOL     -0.676512
     94 C29         0.8800   -3.0450    2.2270 c3        1 MOL      0.262866
     95 C30         1.8490   -3.7730    1.3280 c         1 MOL      0.413170
     96 O16         2.1750   -4.9400    1.5840 o         1 MOL     -0.540745
     97 C31         1.2320   -2.5530    3.6640 c3        1 MOL      0.020218
     98 C32         0.3400   -1.3030    4.0620 c3        1 MOL     -0.063084
     99 C33         2.7020   -2.1450    3.9020 c3        1 MOL     -0.130437
    100 C34         0.5780   -0.8770    5.4660 c3        1 MOL     -0.112422
    101 H42        -0.6080   -4.4880    2.8870 hn        1 MOL      0.330724
    102 H43         0.6770   -2.0790    1.7410 h1        1 MOL     -0.008580
    103 H44         0.9090   -3.3820    4.2930 hc        1 MOL      0.031327
    104 H45        -0.7150   -1.5260    3.9400 hc        1 MOL      0.064802
    105 H46         0.5140   -0.4600    3.3880 hc        1 MOL      0.064802
    106 H47         2.8810   -2.1510    4.9810 hc        1 MOL      0.019050
    107 H48         3.4080   -2.8180    3.4280 hc        1 MOL      0.019050
    108 H49         2.8520   -1.1590    3.4770 hc        1 MOL      0.019050
    109 H50         0.8270   -1.7550    6.0620 hc        1 MOL      0.028691
    110 H51         1.4800   -0.2700    5.4560 hc        1 MOL      0.028691
    111 H52        -0.1900   -0.3130    6.0100 hc        1 MOL      0.028691
    112 N10         2.4580   -3.0110    0.3640 n         1 MOL     -0.156614
    113 C35         3.5370   -3.4070   -0.4990 c3        1 MOL     -0.056346
    114 C36         4.8610   -2.7630    0.0430 c         1 MOL      0.370262
    115 O17         4.8450   -1.8900    0.9140 o         1 MOL     -0.411362
    116 C37         3.3100   -2.7900   -1.8450 c3        1 MOL      0.463397
    117 C38         2.1960   -3.6120   -2.6050 c3        1 MOL     -0.523410
    118 O18         3.0420   -1.3760   -1.7510 oh        1 MOL     -0.685593
    119 H53         2.0810   -2.1100    0.1340 hn        1 MOL      0.117196
    120 H54         3.7210   -4.4780   -0.6260 h1        1 MOL      0.078181
    121 H55         4.2010   -2.8860   -2.4690 h1        1 MOL     -0.035413
    122 H56         2.2090   -1.3440   -1.2700 ho        1 MOL      0.453744
    123 H57         2.6060   -4.5850   -2.8640 hc        1 MOL      0.127098
    124 H58         1.3190   -3.9200   -2.0400 hc        1 MOL      0.127098
    125 H59         1.7370   -3.1410   -3.4770 hc        1 MOL      0.127098
    126 N11         5.9950   -3.0620   -0.5730 n         1 MOL     -0.232227
    127 C39         7.3650   -2.6010   -0.1750 c3        1 MOL     -0.075529
    128 C40         7.5940   -1.0810   -0.1220 c         1 MOL      0.360702
    129 O19         8.3740   -0.5940    0.7130 o         1 MOL     -0.472693
    130 C41         8.4380   -3.2790   -1.0350 c3        1 MOL      0.462225
    131 C42         9.6900   -3.6010   -0.2100 c3        1 MOL     -0.440487
    132 O20         7.9430   -4.5060   -1.5510 oh        1 MOL     -0.605373
    133 H60         5.9290   -3.7650   -1.2910 hn        1 MOL      0.180460
    134 H61         7.5200   -2.9710    0.8450 h1        1 MOL      0.122430
    135 H62         8.6840   -2.5960   -1.8490 h1        1 MOL     -0.059402
    136 H63         8.5070   -4.7750   -2.2830 ho        1 MOL      0.386885
    137 H64         9.3820   -4.1070    0.7080 hc        1 MOL      0.119029
    138 H65        10.3390   -4.2110   -0.8360 hc        1 MOL      0.119029
    139 H66        10.0660   -2.6050    0.0260 hc        1 MOL      0.119029
    140 N12         6.9760   -0.2430   -1.0170 n         1 MOL     -0.260030
    141 C43         7.1220    1.2620   -0.9790 c3        1 MOL     -0.029203
    142 C44         6.1840    1.8450    0.0340 c         1 MOL      0.276433
    143 O21         6.3860    2.8850    0.6710 o         1 MOL     -0.517206
    144 C45         6.7090    1.7470   -2.4030 c3        1 MOL     -0.243169
    145 C46         6.8200    3.2750   -2.6350 c3        1 MOL      0.068777
    146 C47         6.5550    3.5660   -4.1090 c3        1 MOL     -0.263977
    147 C48         7.6180    3.2030   -5.1880 c3        1 MOL     -0.082443
    148 N13         8.8500    4.0640   -5.0850 n4        1 MOL     -0.183417
    149 H67         6.5550   -0.6970   -1.8100 hn        1 MOL      0.198281
    150 H68         8.1260    1.6390   -0.7700 h1        1 MOL      0.128239
    151 H69         5.6440    1.5530   -2.5550 hc        1 MOL      0.110061
    152 H70         7.3680    1.2140   -3.0910 hc        1 MOL      0.110061
    153 H71         7.8070    3.6660   -2.4060 hc        1 MOL      0.035993
    154 H72         6.0970    3.8010   -2.0110 hc        1 MOL      0.035993
    155 H73         6.3310    4.6310   -4.1760 hc        1 MOL      0.130034
    156 H74         5.6180    3.0390   -4.3030 hc        1 MOL      0.130034
    157 H75         7.2680    3.3330   -6.2160 hx        1 MOL      0.122958
    158 H76         7.8950    2.1550   -5.0730 hx        1 MOL      0.122958
    159 H77         8.7350    5.0430   -5.2960 hn        1 MOL      0.263334
    160 H78         9.2620    4.0080   -4.1610 hn        1 MOL      0.263334
    161 H79         9.5540    3.7640   -5.7370 hn        1 MOL      0.263334
    162 N14         5.0810    1.2010    0.3780 n         1 MOL      0.009161
    163 C49         4.1780    1.6500    1.4410 c3        1 MOL     -0.007119
    164 C50         4.7630    1.3530    2.8320 c         1 MOL      0.378597
    165 O22         4.7880    2.3410    3.6260 o         1 MOL     -0.553420
    166 C51         2.8380    0.8800    1.3020 c3        1 MOL     -0.036370
    167 C52         2.1550    1.2360   -0.0350 c3        1 MOL     -0.167790
    168 C53         0.8150    0.4290   -0.2820 c         1 MOL      0.762661
    169 O23        -0.2800    0.9980   -0.2120 o         1 MOL     -0.707837
    170 O24         0.8660   -0.8300   -0.5510 o         1 MOL     -0.707837
    171 H80         4.8600    0.3140   -0.0730 hn        1 MOL      0.127882
    172 H81         3.9870    2.7200    1.3970 h1        1 MOL      0.083687
    173 H82         2.1910    1.1520    2.1410 hc        1 MOL      0.056258
    174 H83         2.9230   -0.2080    1.2670 hc        1 MOL      0.056258
    175 H84         2.9030    1.1300   -0.8320 hc        1 MOL      0.025942
    176 H85         1.9020    2.2880   -0.0130 hc        1 MOL      0.025942
    177 N15         5.4180    0.1820    2.9220 n         1 MOL      0.010724
    178 C54         6.3160   -0.1940    3.9780 c3        1 MOL     -0.256071
    179 H86         5.8150   -0.8920    4.6490 h1        1 MOL      0.091946
    180 H87         7.2000   -0.6710    3.5530 h1        1 MOL      0.091946
    181 H88         6.6140    0.6940    4.5350 h1        1 MOL      0.091946
    182 H89         5.2410   -0.4580    2.1540 hn        1 MOL      0.111472
    183 Ca1        -1.7230   -0.9090   -1.4350 Ca        1 MOL      1.743759
    184 O25        -0.8170   -3.0570   -2.7490 oh        1 MOL     -0.856573
    185 H90        -1.3200   -3.8630   -2.8250 ho        1 MOL      0.403960
    186 H91        -0.3410   -2.9880   -3.5720 ho        1 MOL      0.403960
    187 O26         0.0970   -0.3790   -3.4470 oh        1 MOL     -0.856573
    188 H92        -0.4680    0.3710   -3.6230 ho        1 MOL      0.403960
    189 H93         0.1110   -0.8750   -4.2590 ho        1 MOL      0.403960
@<TRIPOS>BOND
     1    1    2 1   
     2    1    4 1   
     3    1    5 1   
     4    1    6 1   
     5    2    3 2   
     6    2    7 1   
     7    7    8 1   
     8    7   15 1   
     9    8    9 1   
    10    8   11 1   
    11    8   16 1   
    12    9   10 2   
    13    9   19 1   
    14   11   12 1   
    15   11   17 1   
    16   11   18 1   
    17   12   13 1   
    18   12   14 1   
    19   19   20 1   
    20   19   28 1   
    21   20   21 1   
    22   20   23 1   
    23   20   29 1   
    24   21   22 2   
    25   21   41 1   
    26   23   24 1   
    27   23   30 1   
    28   23   31 1   
    29   24   25 1   
    30   24   32 1   
    31   24   33 1   
    32   25   26 1   
    33   25   34 1   
    34   25   35 1   
    35   26   27 1   
    36   26   36 1   
    37   26   37 1   
    38   27   38 1   
    39   27   39 1   
    40   27   40 1   
    41   41   42 1   
    42   41   49 1   
    43   42   43 1   
    44   42   45 1   
    45   42   50 1   
    46   43   44 2   
    47   43   53 1   
    48   45   46 1   
    49   45   51 1   
    50   45   52 1   
    51   46   47 1   
    52   46   48 1   
    53   53   54 1   
    54   53   57 1   
    55   54   55 1   
    56   54   58 1   
    57   54   59 1   
    58   55   56 2   
    59   55   60 1   
    60   60   61 1   
    61   60   68 1   
    62   61   62 1   
    63   61   64 1   
    64   61   69 1   
    65   62   63 2   
    66   62   72 1   
    67   64   65 1   
    68   64   70 1   
    69   64   71 1   
    70   65   66 1   
    71   65   67 1   
    72   72   73 1   
    73   72   76 1   
    74   73   74 1   
    75   73   77 1   
    76   73   78 1   
    77   74   75 2   
    78   74   79 1   
    79   79   80 1   
    80   79   86 1   
    81   80   81 1   
    82   80   83 1   
    83   80   87 1   
    84   81   82 2   
    85   81   93 1   
    86   83   84 1   
    87   83   85 1   
    88   83   88 1   
    89   84   90 1   
    90   84   91 1   
    91   84   92 1   
    92   85   89 1   
    93   93   94 1   
    94   93  101 1   
    95   94   95 1   
    96   94   97 1   
    97   94  102 1   
    98   95   96 2   
    99   95  112 1   
   100   97   98 1   
   101   97   99 1   
   102   97  103 1   
   103   98  100 1   
   104   98  104 1   
   105   98  105 1   
   106   99  106 1   
   107   99  107 1   
   108   99  108 1   
   109  100  109 1   
   110  100  110 1   
   111  100  111 1   
   112  112  113 1   
   113  112  119 1   
   114  113  114 1   
   115  113  116 1   
   116  113  120 1   
   117  114  115 2   
   118  114  126 1   
   119  116  117 1   
   120  116  118 1   
   121  116  121 1   
   122  117  123 1   
   123  117  124 1   
   124  117  125 1   
   125  118  122 1   
   126  126  127 1   
   127  126  133 1   
   128  127  128 1   
   129  127  130 1   
   130  127  134 1   
   131  128  129 2   
   132  128  140 1   
   133  130  131 1   
   134  130  132 1   
   135  130  135 1   
   136  131  137 1   
   137  131  138 1   
   138  131  139 1   
   139  132  136 1   
   140  140  141 1   
   141  140  149 1   
   142  141  142 1   
   143  141  144 1   
   144  141  150 1   
   145  142  143 2   
   146  142  162 1   
   147  144  145 1   
   148  144  151 1   
   149  144  152 1   
   150  145  146 1   
   151  145  153 1   
   152  145  154 1   
   153  146  147 1   
   154  146  155 1   
   155  146  156 1   
   156  147  148 1   
   157  147  157 1   
   158  147  158 1   
   159  148  159 1   
   160  148  160 1   
   161  148  161 1   
   162  162  163 1   
   163  162  171 1   
   164  163  164 1   
   165  163  166 1   
   166  163  172 1   
   167  164  165 2   
   168  164  177 1   
   169  166  167 1   
   170  166  173 1   
   171  166  174 1   
   172  167  168 1   
   173  167  175 1   
   174  167  176 1   
   175  168  169 1   
   176  168  170 1   
   177  177  178 1   
   178  177  182 1   
   179  178  179 1   
   180  178  180 1   
   181  178  181 1   
   182  184  185 1   
   183  184  186 1   
   184  187  188 1   
   185  187  189 1   
@<TRIPOS>SUBSTRUCTURE
     1 MOL         1 TEMP              0 ****  ****    0 ROOT
