@<TRIPOS>MOLECULE
MOL
  175   173     1     0     0
SMALL
resp


@<TRIPOS>ATOM
      1 C1          1.1820    4.7160    5.1210 c3        1 MOL     -0.414237
      2 C2          0.5050    4.4250    3.7650 c         1 MOL      0.691284
      3 O1          1.2440    4.3410    2.7890 o         1 MOL     -0.524017
      4 H1          1.6530    5.6990    5.0880 hc        1 MOL      0.099049
      5 H2          0.4330    4.7000    5.9120 hc        1 MOL      0.099049
      6 H3          1.9380    3.9580    5.3210 hc        1 MOL      0.099049
      7 N1         -0.8030    4.2030    3.7470 n         1 MOL     -0.622313
      8 C3         -1.5740    3.8520    2.5190 c3        1 MOL      0.233167
      9 C4         -1.6420    5.0020    1.5360 c         1 MOL      0.580121
     10 O2         -1.3570    6.2100    1.8290 o         1 MOL     -0.582321
     11 C5         -2.8760    3.1870    2.9550 c3        1 MOL     -0.220696
     12 C6         -3.7820    2.8200    1.7560 c         1 MOL      0.644662
     13 O3         -3.3040    2.1170    0.8670 o         1 MOL     -0.662115
     14 O4         -4.8380    3.4260    1.5320 o         1 MOL     -0.662115
     15 H4         -1.3100    4.2530    4.6260 hn        1 MOL      0.312967
     16 H5         -0.9560    3.0750    2.0750 h1        1 MOL      0.018949
     17 H6         -3.4930    3.8760    3.5280 hc        1 MOL      0.022465
     18 H7         -2.7510    2.2640    3.5160 hc        1 MOL      0.022465
     19 N2         -1.9280    4.6070    0.3120 n         1 MOL     -0.694780
     20 C7         -2.1120    5.5310   -0.8490 c3        1 MOL      0.464407
     21 C8         -3.3900    5.1750   -1.6380 c         1 MOL      0.320495
     22 O5         -3.7850    5.8870   -2.5610 o         1 MOL     -0.555118
     23 C9         -0.8440    5.4410   -1.7090 c3        1 MOL     -0.328829
     24 H8         -2.1730    3.6400    0.1350 hn        1 MOL      0.473066
     25 H9         -2.2640    6.5910   -0.6190 h1        1 MOL     -0.010144
     26 H10         0.0140    5.7250   -1.1140 hc        1 MOL      0.083381
     27 H11        -0.6630    4.4270   -2.0980 hc        1 MOL      0.083381
     28 H12        -0.8960    6.2050   -2.4780 hc        1 MOL      0.083381
     29 N3         -3.9590    4.0170   -1.3630 n         1 MOL     -0.231698
     30 C10        -4.9420    3.4770   -2.2840 c3        1 MOL      0.102932
     31 C11        -6.1550    2.6560   -1.8260 c         1 MOL      0.305056
     32 O6         -7.0480    2.4390   -2.6750 o         1 MOL     -0.535267
     33 C12        -4.1640    2.7060   -3.3760 c3        1 MOL     -0.146440
     34 C13        -3.3430    1.3950   -2.9900 c         1 MOL      0.651770
     35 O7         -2.3300    1.1230   -3.6910 o         1 MOL     -0.668582
     36 O8         -3.6020    0.8540   -1.9280 o         1 MOL     -0.668582
     37 H13        -3.5710    3.3640   -0.6970 hn        1 MOL      0.118072
     38 H14        -5.4900    4.3080   -2.7230 h1        1 MOL      0.086936
     39 H15        -3.5680    3.4980   -3.8350 hc        1 MOL      0.025636
     40 H16        -4.8750    2.3730   -4.1380 hc        1 MOL      0.025636
     41 N4         -6.2770    2.2280   -0.5480 n         1 MOL     -0.028761
     42 C14        -7.4250    1.5230   -0.0180 c3        1 MOL     -0.267846
     43 C15        -7.5530    0.0780   -0.5420 c         1 MOL      0.488583
     44 O9         -8.5550   -0.6570   -0.3910 o         1 MOL     -0.599279
     45 H17        -5.6650    2.6870    0.1030 hn        1 MOL      0.166948
     46 H18        -8.2930    2.0460   -0.4090 h1        1 MOL      0.113774
     47 H19        -7.4400    1.5820    1.0720 h1        1 MOL      0.113774
     48 N5         -6.4610   -0.4560   -1.1490 n         1 MOL     -0.105722
     49 C16        -6.4490   -1.8050   -1.7600 c3        1 MOL     -0.013002
     50 C17        -6.4540   -3.0390   -0.7300 c         1 MOL      0.388349
     51 O10        -6.4590   -4.2220   -1.1210 o         1 MOL     -0.483112
     52 C18        -5.4050   -1.8400   -2.8700 c3        1 MOL     -0.277641
     53 C19        -4.0030   -2.0690   -2.3290 c         1 MOL      0.796120
     54 N6         -3.0190   -2.2130   -3.2700 n         1 MOL     -0.761433
     55 O11        -3.7790   -2.1290   -1.0970 o         1 MOL     -0.575860
     56 H20        -5.6550    0.1210   -0.9980 hn        1 MOL      0.064256
     57 H21        -7.4130   -1.8600   -2.2510 h1        1 MOL      0.102159
     58 H22        -5.5220   -1.0180   -3.5750 hc        1 MOL      0.093559
     59 H23        -5.6310   -2.7470   -3.4190 hc        1 MOL      0.093559
     60 H24        -3.2160   -2.0090   -4.2340 hn        1 MOL      0.361038
     61 H25        -2.0600   -2.2790   -2.9800 hn        1 MOL      0.361038
     62 N7         -6.2800   -2.7370    0.6180 n         1 MOL     -0.219480
     63 C20        -6.2160   -3.6810    1.7550 c3        1 MOL     -0.177538
     64 C21        -4.9140   -4.5200    1.8160 c         1 MOL      0.557864
     65 O12        -4.7050   -5.3230    2.7110 o         1 MOL     -0.599533
     66 H26        -6.5490   -1.7860    0.8310 hn        1 MOL      0.228637
     67 H27        -7.0520   -4.3740    1.7400 h1        1 MOL      0.093486
     68 H28        -6.3220   -3.1060    2.6690 h1        1 MOL      0.093486
     69 N8         -4.0200   -4.2930    0.8540 n         1 MOL     -0.211294
     70 C22        -2.5870   -4.7880    0.8790 c3        1 MOL     -0.011091
     71 C23        -1.6710   -3.6590    1.1900 c         1 MOL      0.563467
     72 O13        -1.8700   -2.5220    0.8620 o         1 MOL     -0.551312
     73 C24        -2.2590   -5.4680   -0.4690 c3        1 MOL      0.464782
     74 C25        -2.5670   -6.9200   -0.4030 c3        1 MOL     -0.334338
     75 O14        -2.9210   -4.9380   -1.5750 oh        1 MOL     -0.534372
     76 H29        -4.2000   -3.6200    0.1190 hn        1 MOL      0.075172
     77 H30        -2.4270   -5.5050    1.6900 h1        1 MOL      0.054375
     78 H31        -1.1780   -5.3380   -0.5960 h1        1 MOL     -0.034950
     79 H32        -2.8730   -3.9770   -1.4940 ho        1 MOL      0.256874
     80 H33        -2.2120   -7.4380   -1.2930 hc        1 MOL      0.073279
     81 H34        -2.0530   -7.3870    0.4430 hc        1 MOL      0.073279
     82 H35        -3.6310   -7.0970   -0.2640 hc        1 MOL      0.073279
     83 N9         -0.4950   -4.0120    1.7000 n         1 MOL     -0.501680
     84 C26         0.6760   -3.0780    1.8140 c3        1 MOL      0.007647
     85 C27         1.5540   -3.1820    0.5890 c         1 MOL      0.500476
     86 O15         2.1700   -4.2530    0.3420 o         1 MOL     -0.596459
     87 C28         1.5600   -3.3360    3.0600 c3        1 MOL      0.309465
     88 C29         0.7090   -3.3630    4.3640 c3        1 MOL      0.109433
     89 C30         2.6700   -2.2970    3.2130 c3        1 MOL     -0.478458
     90 C31         1.3790   -4.2170    5.4980 c3        1 MOL     -0.255230
     91 H36        -0.3960   -4.9770    1.9850 hn        1 MOL      0.255660
     92 H37         0.2940   -2.0640    1.9750 h1        1 MOL      0.063818
     93 H38         2.0140   -4.3210    2.9380 hc        1 MOL     -0.044652
     94 H39        -0.3220   -3.6540    4.1350 hc        1 MOL     -0.030334
     95 H40         0.4940   -2.3460    4.6960 hc        1 MOL     -0.030334
     96 H41         3.2810   -2.7810    3.9680 hc        1 MOL      0.108036
     97 H42         3.3730   -2.3300    2.3890 hc        1 MOL      0.108036
     98 H43         2.2140   -1.3450    3.4800 hc        1 MOL      0.108036
     99 H44         1.4440   -3.6740    6.4330 hc        1 MOL      0.050230
    100 H45         0.8300   -5.1380    5.6990 hc        1 MOL      0.050230
    101 H46         2.4490   -4.3800    5.3270 hc        1 MOL      0.050230
    102 N10         1.6710   -2.0520   -0.1220 n         1 MOL     -0.220200
    103 C32         2.5330   -2.0170   -1.3370 c3        1 MOL     -0.038784
    104 C33         4.0100   -1.6630   -0.9980 c         1 MOL      0.592693
    105 O16         4.2460   -1.1490    0.1010 o         1 MOL     -0.455833
    106 C34         1.7700   -1.0970   -2.3440 c3        1 MOL     -0.246316
    107 C35         0.3050   -1.4310   -2.6150 c         1 MOL      0.756954
    108 O17         0.0950   -2.1000   -3.6530 o         1 MOL     -0.678822
    109 O18        -0.5880   -1.0350   -1.8290 o         1 MOL     -0.678822
    110 H47         1.0770   -1.2980    0.1900 hn        1 MOL      0.138119
    111 H48         2.6110   -3.0080   -1.7860 h1        1 MOL      0.084349
    112 H49         2.3290   -1.0500   -3.2780 hc        1 MOL      0.071050
    113 H50         1.8150   -0.0640   -1.9850 hc        1 MOL      0.071050
    114 N11         5.0420   -1.8810   -1.8270 n         1 MOL     -0.735297
    115 C36         6.4290   -1.4620   -1.4730 c3        1 MOL      0.516914
    116 C37         6.5980   -0.0200   -1.1150 c         1 MOL      0.116316
    117 O19         7.3000    0.2550   -0.1250 o         1 MOL     -0.435845
    118 C38         7.4740   -1.9060   -2.5270 c3        1 MOL     -0.297829
    119 C39         8.9640   -1.7910   -1.9970 ca        1 MOL      0.102291
    120 C40         9.8590   -0.8380   -2.5570 ca        1 MOL     -0.146975
    121 C41         9.4450   -2.6150   -0.9930 ca        1 MOL     -0.146975
    122 C42        11.1660   -0.7230   -2.0850 ca        1 MOL     -0.129110
    123 C43        10.8370   -2.5570   -0.6070 ca        1 MOL     -0.129110
    124 C44        11.6920   -1.5910   -1.1540 ca        1 MOL     -0.089379
    125 H51         4.9660   -2.5400   -2.5900 hn        1 MOL      0.342825
    126 H52         6.5740   -1.9800   -0.5250 h1        1 MOL      0.034362
    127 H53         7.4360   -1.1790   -3.3350 hc        1 MOL      0.082757
    128 H54         7.2330   -2.8860   -2.9260 hc        1 MOL      0.082757
    129 H55         9.5540   -0.2240   -3.3930 ha        1 MOL      0.112919
    130 H56         8.7280   -3.2570   -0.5020 ha        1 MOL      0.112919
    131 H57        11.7190    0.0930   -2.5200 ha        1 MOL      0.112188
    132 H58        11.2250   -3.1380    0.2140 ha        1 MOL      0.112188
    133 H59        12.7270   -1.4450   -0.9030 ha        1 MOL      0.100743
    134 N12         6.0760    0.9910   -1.8370 n         1 MOL      0.022783
    135 C45         6.2500    2.3900   -1.4550 c3        1 MOL      0.025329
    136 C46         5.6590    2.7780   -0.1400 c         1 MOL      0.186884
    137 O20         6.0460    3.7410    0.5760 o         1 MOL     -0.493213
    138 C47         5.5660    3.2380   -2.5570 c3        1 MOL     -0.111022
    139 C48         5.4290    2.2760   -3.6890 c3        1 MOL      0.010968
    140 C49         5.3040    0.8990   -3.1270 c3        1 MOL     -0.040946
    141 H60         7.3260    2.5770   -1.4260 h1        1 MOL      0.082579
    142 H61         4.5520    3.4900   -2.2490 hc        1 MOL      0.065169
    143 H62         6.1960    4.0510   -2.8900 hc        1 MOL      0.065169
    144 H63         4.5840    2.4990   -4.3510 hc        1 MOL      0.011463
    145 H64         6.3980    2.2350   -4.1920 hc        1 MOL      0.011463
    146 H65         4.2490    0.6360   -3.0010 h1        1 MOL      0.042540
    147 H66         5.6870    0.2050   -3.8730 h1        1 MOL      0.042540
    148 N13         4.6280    2.0670    0.3160 n         1 MOL      0.073941
    149 C50         4.0220    2.1960    1.5950 c3        1 MOL     -0.107398
    150 C51         4.9020    1.6020    2.6990 c         1 MOL      0.567916
    151 O21         5.1450    2.2660    3.7130 o         1 MOL     -0.562739
    152 C52         2.6750    1.4540    1.6580 c3        1 MOL     -0.080540
    153 C53         1.7900    1.8140    0.4630 c3        1 MOL      0.279038
    154 C54         0.3540    1.2850    0.4790 c         1 MOL      0.471902
    155 O22        -0.5320    1.9080   -0.1020 o         1 MOL     -0.664975
    156 O23         0.1670    0.0880    0.9110 o         1 MOL     -0.664975
    157 H67         4.3370    1.3390   -0.3120 hn        1 MOL      0.090622
    158 H68         3.8280    3.2440    1.8200 h1        1 MOL      0.084957
    159 H69         2.2030    1.7170    2.6050 hc        1 MOL     -0.002768
    160 H70         2.7620    0.3630    1.6820 hc        1 MOL     -0.002768
    161 H71         2.2950    1.5020   -0.4430 hc        1 MOL     -0.036965
    162 H72         1.7980    2.8850    0.2670 hc        1 MOL     -0.036965
    163 N14         5.4310    0.3710    2.4480 n         1 MOL     -0.232651
    164 C55         6.5220   -0.1690    3.2780 c3        1 MOL     -0.114277
    165 H73         7.1890    0.6410    3.5740 h1        1 MOL      0.053981
    166 H74         6.1030   -0.6380    4.1690 h1        1 MOL      0.053981
    167 H75         7.0830   -0.9100    2.7070 h1        1 MOL      0.053981
    168 H76         5.2470   -0.0650    1.5580 hn        1 MOL      0.195407
    169 Ca1        -2.2500   -0.1050   -0.0320 Ca        1 MOL      1.693072
    170 O24        -4.3610   -0.3250    1.9540 oh        1 MOL     -0.801712
    171 H77        -4.9790    0.3240    2.2680 ho        1 MOL      0.396752
    172 H78        -3.8830   -0.5960    2.7370 ho        1 MOL      0.396752
    173 O25        -1.8110   -0.2530    2.8910 oh        1 MOL     -0.801712
    174 H79        -0.9560   -0.0120    2.5390 ho        1 MOL      0.396752
    175 H80        -1.8760    0.2170    3.7170 ho        1 MOL      0.396752
@<TRIPOS>BOND
     1    1    2 1   
     2    1    4 1   
     3    1    5 1   
     4    1    6 1   
     5    2    3 2   
     6    2    7 1   
     7    7    8 1   
     8    7   15 1   
     9    8    9 1   
    10    8   11 1   
    11    8   16 1   
    12    9   10 2   
    13    9   19 1   
    14   11   12 1   
    15   11   17 1   
    16   11   18 1   
    17   12   13 1   
    18   12   14 1   
    19   19   20 1   
    20   19   24 1   
    21   20   21 1   
    22   20   23 1   
    23   20   25 1   
    24   21   22 2   
    25   21   29 1   
    26   23   26 1   
    27   23   27 1   
    28   23   28 1   
    29   29   30 1   
    30   29   37 1   
    31   30   31 1   
    32   30   33 1   
    33   30   38 1   
    34   31   32 2   
    35   31   41 1   
    36   33   34 1   
    37   33   39 1   
    38   33   40 1   
    39   34   35 1   
    40   34   36 1   
    41   41   42 1   
    42   41   45 1   
    43   42   43 1   
    44   42   46 1   
    45   42   47 1   
    46   43   44 2   
    47   43   48 1   
    48   48   49 1   
    49   48   56 1   
    50   49   50 1   
    51   49   52 1   
    52   49   57 1   
    53   50   51 2   
    54   50   62 1   
    55   52   53 1   
    56   52   58 1   
    57   52   59 1   
    58   53   54 1   
    59   53   55 2   
    60   54   60 1   
    61   54   61 1   
    62   62   63 1   
    63   62   66 1   
    64   63   64 1   
    65   63   67 1   
    66   63   68 1   
    67   64   65 2   
    68   64   69 1   
    69   69   70 1   
    70   69   76 1   
    71   70   71 1   
    72   70   73 1   
    73   70   77 1   
    74   71   72 2   
    75   71   83 1   
    76   73   74 1   
    77   73   75 1   
    78   73   78 1   
    79   74   80 1   
    80   74   81 1   
    81   74   82 1   
    82   75   79 1   
    83   83   84 1   
    84   83   91 1   
    85   84   85 1   
    86   84   87 1   
    87   84   92 1   
    88   85   86 2   
    89   85  102 1   
    90   87   88 1   
    91   87   89 1   
    92   87   93 1   
    93   88   90 1   
    94   88   94 1   
    95   88   95 1   
    96   89   96 1   
    97   89   97 1   
    98   89   98 1   
    99   90   99 1   
   100   90  100 1   
   101   90  101 1   
   102  102  103 1   
   103  102  110 1   
   104  103  104 1   
   105  103  106 1   
   106  103  111 1   
   107  104  105 2   
   108  104  114 1   
   109  106  107 1   
   110  106  112 1   
   111  106  113 1   
   112  107  108 1   
   113  107  109 1   
   114  114  115 1   
   115  114  125 1   
   116  115  116 1   
   117  115  118 1   
   118  115  126 1   
   119  116  117 2   
   120  116  134 1   
   121  118  119 1   
   122  118  127 1   
   123  118  128 1   
   124  119  120 ar  
   125  119  121 ar  
   126  120  122 ar  
   127  120  129 1   
   128  121  123 ar  
   129  121  130 1   
   130  122  124 ar  
   131  122  131 1   
   132  123  124 ar  
   133  123  132 1   
   134  124  133 1   
   135  134  135 1   
   136  134  140 1   
   137  135  136 1   
   138  135  138 1   
   139  135  141 1   
   140  136  137 2   
   141  136  148 1   
   142  138  139 1   
   143  138  142 1   
   144  138  143 1   
   145  139  140 1   
   146  139  144 1   
   147  139  145 1   
   148  140  146 1   
   149  140  147 1   
   150  148  149 1   
   151  148  157 1   
   152  149  150 1   
   153  149  152 1   
   154  149  158 1   
   155  150  151 2   
   156  150  163 1   
   157  152  153 1   
   158  152  159 1   
   159  152  160 1   
   160  153  154 1   
   161  153  161 1   
   162  153  162 1   
   163  154  155 1   
   164  154  156 1   
   165  163  164 1   
   166  163  168 1   
   167  164  165 1   
   168  164  166 1   
   169  164  167 1   
   170  170  171 1   
   171  170  172 1   
   172  173  174 1   
   173  173  175 1   
@<TRIPOS>SUBSTRUCTURE
     1 MOL         1 TEMP              0 ****  ****    0 ROOT
