@<TRIPOS>MOLECULE
MOL
  189   185     1     0     0
SMALL
resp


@<TRIPOS>ATOM
      1 C1          0.2330    3.2760    5.0420 c3        1 MOL     -0.483918
      2 C2         -0.4690    3.0980    3.6520 c         1 MOL      0.618815
      3 O1          0.0250    3.5670    2.6320 o         1 MOL     -0.608945
      4 H1          1.0330    4.0110    4.9530 hc        1 MOL      0.138338
      5 H2         -0.4950    3.6190    5.7760 hc        1 MOL      0.138338
      6 H3          0.6520    2.3210    5.3630 hc        1 MOL      0.138338
      7 N1         -1.5330    2.2930    3.5280 n         1 MOL     -0.574078
      8 C3         -2.2710    1.8120    2.2540 c3        1 MOL      0.023198
      9 C4         -3.1000    2.8410    1.5790 c         1 MOL      0.560748
     10 O2         -4.2090    3.1660    1.9560 o         1 MOL     -0.584209
     11 C5         -3.1120    0.6270    2.6550 c3        1 MOL     -0.158323
     12 C6         -3.9060    0.0530    1.4670 c         1 MOL      0.867663
     13 O3         -5.1400   -0.1660    1.4860 o         1 MOL     -0.753900
     14 O4         -3.2770   -0.1550    0.4370 o         1 MOL     -0.753900
     15 H4         -1.8980    1.9920    4.4170 hn        1 MOL      0.315097
     16 H5         -1.4860    1.3960    1.6110 h1        1 MOL      0.119524
     17 H6         -3.7680    0.9120    3.4760 hc        1 MOL      0.011734
     18 H7         -2.4890   -0.1710    3.0620 hc        1 MOL      0.011734
     19 N2         -2.5140    3.4180    0.5650 n         1 MOL     -0.002589
     20 C7         -2.7820    4.7460    0.0220 c3        1 MOL     -0.557252
     21 C8         -3.2580    4.7240   -1.4410 c         1 MOL      0.724932
     22 O5         -3.3330    5.8410   -1.9520 o         1 MOL     -0.586995
     23 C9         -1.5200    5.6370    0.0240 c3        1 MOL      0.107712
     24 C10        -1.7760    7.0950    0.2300 c3        1 MOL     -0.076121
     25 C11        -2.9340    7.6520    1.0830 c3        1 MOL     -0.151009
     26 C12        -2.8470    7.0780    2.4780 c3        1 MOL      0.310298
     27 N3         -3.9050    7.6170    3.3470 n4        1 MOL     -0.541465
     28 H8         -1.6050    3.0510    0.3070 hn        1 MOL      0.341755
     29 H9         -3.5140    5.2920    0.6250 h1        1 MOL      0.152811
     30 H10        -0.9260    5.3900   -0.8650 hc        1 MOL      0.024892
     31 H11        -0.8870    5.3750    0.8670 hc        1 MOL      0.024892
     32 H12        -1.7370    7.4930   -0.7890 hc        1 MOL      0.043555
     33 H13        -0.8570    7.6020    0.5520 hc        1 MOL      0.043555
     34 H14        -3.8840    7.3600    0.6380 hc        1 MOL      0.061851
     35 H15        -2.8930    8.7430    1.1280 hc        1 MOL      0.061851
     36 H16        -1.8950    7.3710    2.9130 hx        1 MOL      0.012898
     37 H17        -2.8570    5.9870    2.4390 hx        1 MOL      0.012898
     38 H18        -3.7720    8.5660    3.6440 hn        1 MOL      0.362287
     39 H19        -4.8130    7.5420    2.9170 hn        1 MOL      0.362287
     40 H20        -4.0160    6.9510    4.1080 hn        1 MOL      0.362287
     41 N4         -3.6360    3.5920   -1.9830 n         1 MOL     -0.209494
     42 C13        -4.5260    3.3390   -3.0930 c3        1 MOL     -0.359338
     43 C14        -5.6890    2.4300   -2.7780 c         1 MOL      0.629683
     44 O6         -6.6100    2.4420   -3.5680 o         1 MOL     -0.524807
     45 C15        -3.8060    2.6650   -4.3730 c3        1 MOL      0.050394
     46 C16        -2.9820    1.3840   -4.0640 c         1 MOL      0.653480
     47 O7         -2.8600    1.0940   -2.7980 o         1 MOL     -0.651066
     48 O8         -2.4310    0.7710   -4.9740 o         1 MOL     -0.651066
     49 H21        -3.2610    2.7370   -1.5950 hn        1 MOL      0.029717
     50 H22        -4.9310    4.3020   -3.3860 h1        1 MOL      0.151033
     51 H23        -3.1860    3.3400   -4.9700 hc        1 MOL      0.020333
     52 H24        -4.5120    2.2900   -5.1050 hc        1 MOL      0.020333
     53 N5         -5.8140    1.7960   -1.5390 n         1 MOL     -0.121203
     54 C17        -6.9380    1.1470   -0.9130 c3        1 MOL     -0.358063
     55 C18        -7.2010   -0.2490   -1.3860 c         1 MOL      0.717491
     56 O9         -7.9590   -0.4720   -2.3290 o         1 MOL     -0.571091
     57 H25        -4.9640    1.7290   -0.9900 hn        1 MOL      0.105733
     58 H26        -7.7570    1.8600   -1.0830 h1        1 MOL      0.124276
     59 H27        -6.8360    1.1790    0.1680 h1        1 MOL      0.124276
     60 N6         -6.5180   -1.2990   -0.9190 n         1 MOL     -0.600305
     61 C19        -6.5960   -2.6650   -1.4330 c3        1 MOL      0.091992
     62 C20        -6.3290   -3.6900   -0.3100 c         1 MOL      0.372723
     63 O10        -6.2380   -4.9120   -0.4860 o         1 MOL     -0.486676
     64 C21        -5.6510   -2.9560   -2.6120 c3        1 MOL     -0.183967
     65 C22        -4.1760   -2.6570   -2.4450 c         1 MOL      0.664765
     66 O11        -3.7580   -2.8110   -1.2420 o         1 MOL     -0.641167
     67 O12        -3.5720   -2.1760   -3.4000 o         1 MOL     -0.641167
     68 H28        -5.7960   -1.0380   -0.2660 hn        1 MOL      0.294967
     69 H29        -7.6030   -2.9040   -1.7670 h1        1 MOL      0.101080
     70 H30        -6.0330   -2.3370   -3.4260 hc        1 MOL      0.058765
     71 H31        -5.7800   -4.0020   -2.8840 hc        1 MOL      0.058765
     72 N7         -6.2330   -3.2220    0.9810 n         1 MOL     -0.276294
     73 C23        -5.9960   -4.0360    2.2390 c3        1 MOL     -0.190286
     74 C24        -4.6600   -4.8120    2.1690 c         1 MOL      0.580997
     75 O13        -4.5110   -5.8620    2.8100 o         1 MOL     -0.563834
     76 H32        -6.3780   -2.2250    1.0760 hn        1 MOL      0.255676
     77 H33        -6.7760   -4.7950    2.2620 h1        1 MOL      0.109122
     78 H34        -6.0710   -3.4520    3.1550 h1        1 MOL      0.109122
     79 N8         -3.6570   -4.2410    1.4430 n         1 MOL     -0.334162
     80 C25        -2.2860   -4.6530    1.3920 c3        1 MOL     -0.173926
     81 C26        -1.3260   -3.4200    1.3530 c         1 MOL      0.510315
     82 O14        -1.4960   -2.4120    0.6390 o         1 MOL     -0.544794
     83 C27        -1.8690   -5.6030    0.2620 c3        1 MOL      0.583555
     84 C28        -1.9900   -7.0400    0.6890 c3        1 MOL     -0.525917
     85 O15        -2.6350   -5.3700   -0.8710 oh        1 MOL     -0.633400
     86 H35        -3.8770   -3.4550    0.8350 hn        1 MOL      0.234760
     87 H36        -2.0700   -5.1630    2.3270 h1        1 MOL      0.102138
     88 H37        -0.8190   -5.4040    0.1010 h1        1 MOL     -0.079777
     89 H38        -3.0070   -4.4910   -0.7590 ho        1 MOL      0.423298
     90 H39        -1.7580   -7.6910   -0.1560 hc        1 MOL      0.127039
     91 H40        -1.4560   -7.2610    1.6130 hc        1 MOL      0.127039
     92 H41        -3.0530   -7.2320    0.8490 hc        1 MOL      0.127039
     93 N9         -0.2730   -3.4680    2.1420 n         1 MOL     -0.537300
     94 C29         0.8450   -2.4820    2.1530 c3        1 MOL      0.045718
     95 C30         2.0760   -3.0720    1.3600 c         1 MOL      0.532649
     96 O16         2.6080   -4.0860    1.7720 o         1 MOL     -0.594037
     97 C31         1.2060   -2.1670    3.5920 c3        1 MOL      0.263778
     98 C32         0.0810   -1.7220    4.5050 c3        1 MOL      0.053564
     99 C33         2.3670   -1.2180    3.6990 c3        1 MOL     -0.305025
    100 C34         0.3340   -1.7100    6.0040 c3        1 MOL     -0.057547
    101 H42        -0.2680   -4.2030    2.8410 hn        1 MOL      0.293682
    102 H43         0.5320   -1.5520    1.6760 h1        1 MOL      0.108703
    103 H44         1.5590   -3.1440    3.9350 hc        1 MOL     -0.047586
    104 H45        -0.7730   -2.3930    4.4460 hc        1 MOL     -0.013005
    105 H46        -0.1870   -0.7160    4.1740 hc        1 MOL     -0.013005
    106 H47         3.1620   -1.5080    3.0180 hc        1 MOL      0.038351
    107 H48         2.0510   -0.2360    3.3330 hc        1 MOL      0.038351
    108 H49         2.7720   -1.1640    4.7180 hc        1 MOL      0.038351
    109 H50         0.4450   -2.6810    6.4760 hc        1 MOL      0.009111
    110 H51         1.1960   -1.0720    6.2040 hc        1 MOL      0.009111
    111 H52        -0.4350   -1.1840    6.5660 hc        1 MOL      0.009111
    112 N10         2.5990   -2.3380    0.4650 n         1 MOL     -0.050015
    113 C35         3.8660   -2.6120   -0.2540 c3        1 MOL     -0.210770
    114 C36         5.0430   -2.0060    0.5390 c         1 MOL      0.551646
    115 O17         4.8950   -1.0830    1.3340 o         1 MOL     -0.423042
    116 C37         3.8000   -1.9460   -1.6400 c3        1 MOL      0.272848
    117 C38         2.7450   -2.5070   -2.5460 c3        1 MOL     -0.545705
    118 O18         3.5960   -0.5540   -1.5480 oh        1 MOL     -0.449865
    119 H53         2.0650   -1.5130    0.2260 hn        1 MOL      0.053069
    120 H54         3.9950   -3.6890   -0.3460 h1        1 MOL      0.116809
    121 H55         4.7900   -2.0170   -2.0990 h1        1 MOL      0.037616
    122 H56         2.6430   -0.4120   -1.5350 ho        1 MOL      0.381968
    123 H57         3.1340   -2.1890   -3.5100 hc        1 MOL      0.155651
    124 H58         2.7500   -3.5970   -2.4370 hc        1 MOL      0.155651
    125 H59         1.7540   -2.0740   -2.4780 hc        1 MOL      0.155651
    126 N11         6.2370   -2.4410    0.1910 n         1 MOL     -0.452119
    127 C39         7.4890   -1.8330    0.6060 c3        1 MOL     -0.056929
    128 C40         7.4830   -0.3500    0.3180 c         1 MOL      0.214374
    129 O19         8.1830    0.5230    0.8780 o         1 MOL     -0.490924
    130 C41         8.6980   -2.4150   -0.2410 c3        1 MOL      0.290137
    131 C42         9.1620   -3.7560    0.1930 c3        1 MOL     -0.484266
    132 O20         8.2960   -2.4810   -1.6350 oh        1 MOL     -0.586671
    133 H60         6.3470   -3.1510   -0.5230 hn        1 MOL      0.295877
    134 H61         7.6390   -2.1320    1.6480 h1        1 MOL      0.153134
    135 H62         9.4690   -1.6560   -0.1830 h1        1 MOL      0.041037
    136 H63         9.1140   -2.4090   -2.1230 ho        1 MOL      0.367311
    137 H64         9.6720   -3.6460    1.1510 hc        1 MOL      0.146033
    138 H65         8.3340   -4.4580    0.1140 hc        1 MOL      0.146033
    139 H66         9.9340   -4.1530   -0.4690 hc        1 MOL      0.146033
    140 N12         6.7170    0.0710   -0.7720 n         1 MOL      0.176319
    141 C43         6.6930    1.3940   -1.3300 c3        1 MOL      0.004158
    142 C44         5.7850    2.3110   -0.4890 c         1 MOL      0.318743
    143 O21         6.2680    3.3120    0.0300 o         1 MOL     -0.493532
    144 C45         6.1820    1.3150   -2.7890 c3        1 MOL     -0.173578
    145 C46         7.0030    0.2770   -3.5970 c3        1 MOL     -0.062158
    146 C47         8.5720    0.3800   -3.5800 c3        1 MOL     -0.021043
    147 C48         8.9640    1.8730   -3.6950 c3        1 MOL      0.155599
    148 N13        10.4510    1.9470   -4.0000 n4        1 MOL     -0.419730
    149 H67         6.1440   -0.5780   -1.2790 hn        1 MOL      0.106060
    150 H68         7.7160    1.7700   -1.2390 h1        1 MOL      0.016429
    151 H69         6.3410    2.3170   -3.2130 hc        1 MOL      0.059822
    152 H70         5.1210    1.1030   -2.7360 hc        1 MOL      0.059822
    153 H71         6.7260    0.3810   -4.6460 hc        1 MOL      0.032639
    154 H72         6.6940   -0.7000   -3.2190 hc        1 MOL      0.032639
    155 H73         8.9360   -0.1110   -4.4740 hc        1 MOL      0.014424
    156 H74         8.9710   -0.0520   -2.6570 hc        1 MOL      0.014424
    157 H75         8.6560    2.4280   -2.8100 hx        1 MOL      0.075575
    158 H76         8.4390    2.3440   -4.5220 hx        1 MOL      0.075575
    159 H77        10.7830    2.9010   -3.9730 hn        1 MOL      0.330642
    160 H78        11.0460    1.4140   -3.3660 hn        1 MOL      0.330642
    161 H79        10.7280    1.6290   -4.9110 hn        1 MOL      0.330642
    162 N14         4.6000    1.7790   -0.1640 n         1 MOL     -0.073989
    163 C49         3.6990    2.3430    0.9060 c3        1 MOL     -0.312126
    164 C50         4.3380    2.4040    2.2730 c         1 MOL      0.486512
    165 O22         4.0690    3.3730    3.0110 o         1 MOL     -0.544689
    166 C51         2.3330    1.6750    0.9740 c3        1 MOL      0.029779
    167 C52         1.4890    1.8640   -0.2240 c3        1 MOL     -0.195837
    168 C53         0.4530    0.7630   -0.4870 c         1 MOL      0.637959
    169 O23         0.7850   -0.4270   -0.6310 o         1 MOL     -0.722308
    170 O24        -0.7200    1.1820   -0.6240 o         1 MOL     -0.722308
    171 H80         4.2530    0.9100   -0.5410 hn        1 MOL      0.075227
    172 H81         3.6350    3.4150    0.6680 h1        1 MOL      0.144784
    173 H82         1.9180    1.9800    1.9290 hc        1 MOL      0.119624
    174 H83         2.5490    0.6050    0.9110 hc        1 MOL      0.119624
    175 H84         2.1200    1.9190   -1.1040 hc        1 MOL      0.043680
    176 H85         0.9230    2.7880   -0.0900 hc        1 MOL      0.043680
    177 N15         5.1880    1.4330    2.6620 n         1 MOL     -0.119920
    178 C54         5.7800    1.4380    3.9900 c3        1 MOL     -0.258958
    179 H86         6.5720    2.1860    4.0310 h1        1 MOL      0.097959
    180 H87         5.0160    1.6770    4.7280 h1        1 MOL      0.097959
    181 H88         6.2000    0.4550    4.2040 h1        1 MOL      0.097959
    182 H89         5.4020    0.6790    2.0230 hn        1 MOL      0.222299
    183 Ca1        -1.9000   -0.9260   -1.4930 Ca        1 MOL      1.690516
    184 O25        -0.9130   -3.1450   -2.6100 oh        1 MOL     -0.825011
    185 H90        -1.2150   -4.0100   -2.8730 ho        1 MOL      0.391312
    186 H91        -0.4710   -2.8070   -3.3840 ho        1 MOL      0.391312
    187 O26        -0.3860   -0.5170   -3.6980 oh        1 MOL     -0.825011
    188 H92         0.4640   -0.1280   -3.9280 ho        1 MOL      0.391312
    189 H93        -1.0330    0.0780   -4.0830 ho        1 MOL      0.391312
@<TRIPOS>BOND
     1    1    2 1   
     2    1    4 1   
     3    1    5 1   
     4    1    6 1   
     5    2    3 2   
     6    2    7 1   
     7    7    8 1   
     8    7   15 1   
     9    8    9 1   
    10    8   11 1   
    11    8   16 1   
    12    9   10 2   
    13    9   19 1   
    14   11   12 1   
    15   11   17 1   
    16   11   18 1   
    17   12   13 1   
    18   12   14 1   
    19   19   20 1   
    20   19   28 1   
    21   20   21 1   
    22   20   23 1   
    23   20   29 1   
    24   21   22 2   
    25   21   41 1   
    26   23   24 1   
    27   23   30 1   
    28   23   31 1   
    29   24   25 1   
    30   24   32 1   
    31   24   33 1   
    32   25   26 1   
    33   25   34 1   
    34   25   35 1   
    35   26   27 1   
    36   26   36 1   
    37   26   37 1   
    38   27   38 1   
    39   27   39 1   
    40   27   40 1   
    41   41   42 1   
    42   41   49 1   
    43   42   43 1   
    44   42   45 1   
    45   42   50 1   
    46   43   44 2   
    47   43   53 1   
    48   45   46 1   
    49   45   51 1   
    50   45   52 1   
    51   46   47 1   
    52   46   48 1   
    53   53   54 1   
    54   53   57 1   
    55   54   55 1   
    56   54   58 1   
    57   54   59 1   
    58   55   56 2   
    59   55   60 1   
    60   60   61 1   
    61   60   68 1   
    62   61   62 1   
    63   61   64 1   
    64   61   69 1   
    65   62   63 2   
    66   62   72 1   
    67   64   65 1   
    68   64   70 1   
    69   64   71 1   
    70   65   66 1   
    71   65   67 1   
    72   72   73 1   
    73   72   76 1   
    74   73   74 1   
    75   73   77 1   
    76   73   78 1   
    77   74   75 2   
    78   74   79 1   
    79   79   80 1   
    80   79   86 1   
    81   80   81 1   
    82   80   83 1   
    83   80   87 1   
    84   81   82 2   
    85   81   93 1   
    86   83   84 1   
    87   83   85 1   
    88   83   88 1   
    89   84   90 1   
    90   84   91 1   
    91   84   92 1   
    92   85   89 1   
    93   93   94 1   
    94   93  101 1   
    95   94   95 1   
    96   94   97 1   
    97   94  102 1   
    98   95   96 2   
    99   95  112 1   
   100   97   98 1   
   101   97   99 1   
   102   97  103 1   
   103   98  100 1   
   104   98  104 1   
   105   98  105 1   
   106   99  106 1   
   107   99  107 1   
   108   99  108 1   
   109  100  109 1   
   110  100  110 1   
   111  100  111 1   
   112  112  113 1   
   113  112  119 1   
   114  113  114 1   
   115  113  116 1   
   116  113  120 1   
   117  114  115 2   
   118  114  126 1   
   119  116  117 1   
   120  116  118 1   
   121  116  121 1   
   122  117  123 1   
   123  117  124 1   
   124  117  125 1   
   125  118  122 1   
   126  126  127 1   
   127  126  133 1   
   128  127  128 1   
   129  127  130 1   
   130  127  134 1   
   131  128  129 2   
   132  128  140 1   
   133  130  131 1   
   134  130  132 1   
   135  130  135 1   
   136  131  137 1   
   137  131  138 1   
   138  131  139 1   
   139  132  136 1   
   140  140  141 1   
   141  140  149 1   
   142  141  142 1   
   143  141  144 1   
   144  141  150 1   
   145  142  143 2   
   146  142  162 1   
   147  144  145 1   
   148  144  151 1   
   149  144  152 1   
   150  145  146 1   
   151  145  153 1   
   152  145  154 1   
   153  146  147 1   
   154  146  155 1   
   155  146  156 1   
   156  147  148 1   
   157  147  157 1   
   158  147  158 1   
   159  148  159 1   
   160  148  160 1   
   161  148  161 1   
   162  162  163 1   
   163  162  171 1   
   164  163  164 1   
   165  163  166 1   
   166  163  172 1   
   167  164  165 2   
   168  164  177 1   
   169  166  167 1   
   170  166  173 1   
   171  166  174 1   
   172  167  168 1   
   173  167  175 1   
   174  167  176 1   
   175  168  169 1   
   176  168  170 1   
   177  177  178 1   
   178  177  182 1   
   179  178  179 1   
   180  178  180 1   
   181  178  181 1   
   182  184  185 1   
   183  184  186 1   
   184  187  188 1   
   185  187  189 1   
@<TRIPOS>SUBSTRUCTURE
     1 MOL         1 TEMP              0 ****  ****    0 ROOT
