@<TRIPOS>MOLECULE
MOL
  175   173     1     0     0
SMALL
resp


@<TRIPOS>ATOM
      1 C1          0.0740   -3.6820    5.6600 c3        1 MOL     -0.457623
      2 C2          0.4880   -3.5440    4.1870 c         1 MOL      0.759585
      3 O1         -0.2890   -3.6870    3.1940 o         1 MOL     -0.573506
      4 H1          0.7480   -3.0940    6.2820 hc        1 MOL      0.112402
      5 H2         -0.9460   -3.3200    5.7860 hc        1 MOL      0.112402
      6 H3          0.1280   -4.7300    5.9560 hc        1 MOL      0.112402
      7 N1          1.7920   -3.4170    4.0070 n         1 MOL     -0.641453
      8 C3          2.4550   -3.2040    2.6900 c3        1 MOL      0.072645
      9 C4          2.4910   -4.4470    1.8800 c         1 MOL      0.546227
     10 O2          2.8950   -5.5490    2.2960 o         1 MOL     -0.572081
     11 C5          3.8670   -2.7400    2.8870 c3        1 MOL     -0.088033
     12 C6          4.4540   -2.0660    1.6640 c         1 MOL      0.687200
     13 O3          5.6710   -1.7810    1.6260 o         1 MOL     -0.705507
     14 O4          3.7350   -1.8310    0.6800 o         1 MOL     -0.705507
     15 H4          2.3320   -3.6950    4.8170 hn        1 MOL      0.329138
     16 H5          1.8930   -2.4800    2.0920 h1        1 MOL      0.059176
     17 H6          4.4720   -3.6110    3.1490 hc        1 MOL      0.022023
     18 H7          4.0920   -2.1010    3.7410 hc        1 MOL      0.022023
     19 N2          1.9860   -4.3210    0.6170 n         1 MOL     -0.281770
     20 C7          2.0970   -5.3540   -0.4810 c3        1 MOL      0.233221
     21 C8          2.8550   -5.0370   -1.7670 c         1 MOL      0.519045
     22 O5          2.7530   -5.6440   -2.8700 o         1 MOL     -0.549217
     23 C9          0.8160   -6.1490   -0.7570 c3        1 MOL     -0.170350
     24 H8          1.5080   -3.4490    0.4140 hn        1 MOL      0.208820
     25 H9          2.7240   -6.1110   -0.0180 h1        1 MOL     -0.011299
     26 H10         0.8440   -6.9610   -1.4820 hc        1 MOL      0.036775
     27 H11         0.4220   -6.5030    0.1860 hc        1 MOL      0.036775
     28 H12         0.0630   -5.4700   -1.1720 hc        1 MOL      0.036775
     29 N3          3.7670   -3.9940   -1.6920 n         1 MOL     -0.444878
     30 C10         4.5580   -3.5810   -2.8270 c3        1 MOL     -0.024026
     31 C11         5.7840   -2.7220   -2.5700 c         1 MOL      0.553092
     32 O6          6.5620   -2.5950   -3.5130 o         1 MOL     -0.588147
     33 C12         3.5930   -2.7700   -3.7240 c3        1 MOL     -0.062179
     34 C13         2.8290   -1.6680   -3.0130 c         1 MOL      0.653432
     35 O7          3.4560   -1.0550   -2.1330 o         1 MOL     -0.667229
     36 O8          1.6390   -1.4580   -3.3190 o         1 MOL     -0.667229
     37 H13         3.8600   -3.4880   -0.8250 hn        1 MOL      0.154168
     38 H14         4.9100   -4.4740   -3.3380 h1        1 MOL      0.088911
     39 H15         2.8250   -3.4870   -4.0160 hc        1 MOL      0.015349
     40 H16         4.0950   -2.4640   -4.6450 hc        1 MOL      0.015349
     41 N4          6.1230   -2.2690   -1.3700 n         1 MOL     -0.371975
     42 C14         7.3700   -1.5130   -1.1110 c3        1 MOL     -0.215519
     43 C15         7.3550   -0.0160   -1.3760 c         1 MOL      0.522607
     44 O9          8.3500    0.7140   -1.1070 o         1 MOL     -0.635575
     45 H17         5.4050   -2.3550   -0.6600 hn        1 MOL      0.319437
     46 H18         8.1390   -1.9290   -1.7690 h1        1 MOL      0.134225
     47 H19         7.7770   -1.7570   -0.1340 h1        1 MOL      0.134225
     48 N5          6.2340    0.5520   -1.7900 n         1 MOL     -0.223824
     49 C16         6.1230    1.9850   -2.2510 c3        1 MOL      0.072911
     50 C17         6.0170    3.0280   -1.1250 c         1 MOL      0.366639
     51 O10         5.8230    4.2190   -1.3940 o         1 MOL     -0.482560
     52 C18         4.9680    2.1580   -3.2620 c3        1 MOL     -0.307524
     53 C19         3.6000    2.0790   -2.7140 c         1 MOL      0.851039
     54 N6          2.5760    2.2250   -3.5610 n         1 MOL     -0.678907
     55 O11         3.3420    1.8270   -1.5440 o         1 MOL     -0.803625
     56 H20         5.4430   -0.0600   -1.9020 hn        1 MOL      0.178922
     57 H21         7.0560    2.1690   -2.7850 h1        1 MOL      0.098603
     58 H22         5.0150    1.4150   -4.0560 hc        1 MOL      0.080568
     59 H23         5.0370    3.1710   -3.6610 hc        1 MOL      0.080568
     60 H24         2.6540    2.3470   -4.5640 hn        1 MOL      0.315934
     61 H25         1.6150    2.1140   -3.2590 hn        1 MOL      0.315934
     62 N7          6.2010    2.6590    0.1180 n         1 MOL     -0.190222
     63 C20         6.2410    3.6380    1.2740 c3        1 MOL     -0.185473
     64 C21         5.0430    4.4800    1.4710 c         1 MOL      0.496083
     65 O12         5.0730    5.6640    1.8520 o         1 MOL     -0.599794
     66 H26         6.4000    1.6990    0.3420 hn        1 MOL      0.271020
     67 H27         7.0720    4.3200    1.1220 h1        1 MOL      0.098250
     68 H28         6.3620    3.1470    2.2410 h1        1 MOL      0.098250
     69 N8          3.8910    3.9690    1.1730 n         1 MOL     -0.072006
     70 C22         2.6120    4.6040    1.3740 c3        1 MOL     -0.017177
     71 C23         1.5240    3.5010    1.4700 c         1 MOL      0.226909
     72 O13         1.8230    2.3750    1.0660 o         1 MOL     -0.267248
     73 C24         2.2630    5.4960    0.1810 c3        1 MOL      0.561199
     74 C25         2.6530    6.9300    0.2810 c3        1 MOL     -0.475255
     75 O14         2.6750    5.0880   -1.1520 oh        1 MOL     -0.585006
     76 H29         3.9400    2.9930    0.9030 hn        1 MOL     -0.007509
     77 H30         2.6590    5.1650    2.3020 h1        1 MOL      0.050742
     78 H31         1.1750    5.5800    0.2400 h1        1 MOL     -0.077512
     79 H32         2.4690    4.1450   -1.2320 ho        1 MOL      0.331323
     80 H33         3.6890    7.0720   -0.0260 hc        1 MOL      0.108970
     81 H34         2.0750    7.6350   -0.3190 hc        1 MOL      0.108970
     82 H35         2.7170    7.1890    1.3370 hc        1 MOL      0.108970
     83 N9          0.3510    3.8180    1.8940 n         1 MOL     -0.320037
     84 C26        -0.7810    2.9060    1.8900 c3        1 MOL      0.081486
     85 C27        -1.5820    3.0250    0.5920 c         1 MOL      0.571218
     86 O15        -1.8840    4.1190    0.0870 o         1 MOL     -0.609400
     87 C28        -1.5460    3.0480    3.1700 c3        1 MOL      0.011502
     88 C29        -1.1920    1.9820    4.2510 c3        1 MOL      0.031296
     89 C30        -3.0900    2.9630    2.9700 c3        1 MOL     -0.122023
     90 C31        -1.5850    2.4280    5.6300 c3        1 MOL     -0.060241
     91 H36         0.1950    4.7380    2.2730 hn        1 MOL      0.247526
     92 H37        -0.2910    1.9320    1.8650 h1        1 MOL     -0.001741
     93 H38        -1.4030    4.0640    3.5500 hc        1 MOL      0.021358
     94 H39        -0.1030    1.9310    4.2070 hc        1 MOL     -0.002363
     95 H40        -1.6420    1.0200    3.9830 hc        1 MOL     -0.002363
     96 H41        -3.6290    3.2170    3.8780 hc        1 MOL      0.026270
     97 H42        -3.4870    3.6850    2.2500 hc        1 MOL      0.026270
     98 H43        -3.3430    1.9100    2.8420 hc        1 MOL      0.026270
     99 H44        -1.4100    3.4720    5.8840 hc        1 MOL      0.005741
    100 H45        -2.6530    2.2430    5.7610 hc        1 MOL      0.005741
    101 H46        -1.0420    1.8300    6.3610 hc        1 MOL      0.005741
    102 N10        -2.0020    1.9210    0.0520 n         1 MOL     -0.043948
    103 C32        -2.7890    1.8350   -1.1490 c3        1 MOL      0.038511
    104 C33        -4.1790    1.3990   -0.8720 c         1 MOL      0.338072
    105 O16        -4.4390    0.8550    0.1830 o         1 MOL     -0.283221
    106 C34        -2.0600    0.9030   -2.2040 c3        1 MOL     -0.272244
    107 C35        -0.5860    1.2140   -2.4420 c         1 MOL      0.726847
    108 O17         0.2580    0.9670   -1.5190 o         1 MOL     -0.651135
    109 O18        -0.2420    1.6700   -3.5790 o         1 MOL     -0.651135
    110 H47        -1.7160    1.0420    0.4770 hn        1 MOL     -0.206049
    111 H48        -2.6920    2.8260   -1.6030 h1        1 MOL      0.082294
    112 H49        -2.6870    0.9500   -3.0900 hc        1 MOL      0.089531
    113 H50        -2.0610   -0.1310   -1.8670 hc        1 MOL      0.089531
    114 N11        -5.0910    1.5370   -1.7830 n         1 MOL     -0.517264
    115 C36        -6.5050    1.1640   -1.5360 c3        1 MOL      0.437482
    116 C37        -6.8080   -0.2590   -1.1110 c         1 MOL      0.208113
    117 O19        -7.6650   -0.4920   -0.2720 o         1 MOL     -0.465033
    118 C38        -7.4060    1.7030   -2.7070 c3        1 MOL     -0.396469
    119 C39        -8.9130    1.3890   -2.4950 ca        1 MOL      0.388154
    120 C40        -9.6190    2.0930   -1.5190 ca        1 MOL     -0.316495
    121 C41        -9.6190    0.7160   -3.4730 ca        1 MOL     -0.316495
    122 C42       -10.9750    1.9510   -1.4100 ca        1 MOL     -0.018713
    123 C43       -11.0180    0.6340   -3.4480 ca        1 MOL     -0.018713
    124 C44       -11.7230    1.2900   -2.3890 ca        1 MOL     -0.197328
    125 H51        -4.9240    2.0530   -2.6450 hn        1 MOL      0.336192
    126 H52        -6.8340    1.7240   -0.6570 h1        1 MOL      0.032115
    127 H53        -7.0350    1.3290   -3.6570 hc        1 MOL      0.088252
    128 H54        -7.2290    2.7740   -2.6570 hc        1 MOL      0.088252
    129 H55        -9.1810    2.7270   -0.7580 ha        1 MOL      0.145787
    130 H56        -9.0500    0.2480   -4.2600 ha        1 MOL      0.145787
    131 H57       -11.5810    2.4400   -0.6630 ha        1 MOL      0.092355
    132 H58       -11.5690    0.1510   -4.2390 ha        1 MOL      0.092355
    133 H59       -12.7990    1.3270   -2.4240 ha        1 MOL      0.114513
    134 N12        -6.0460   -1.3140   -1.5880 n         1 MOL      0.027139
    135 C45        -6.0770   -2.6680   -0.9780 c3        1 MOL     -0.024600
    136 C46        -5.5800   -2.7810    0.4470 c         1 MOL      0.501052
    137 O20        -5.9040   -3.6960    1.1860 o         1 MOL     -0.545533
    138 C47        -5.2040   -3.5190   -1.9140 c3        1 MOL     -0.208839
    139 C48        -4.2670   -2.4310   -2.5730 c3        1 MOL      0.019346
    140 C49        -5.3110   -1.3340   -2.8660 c3        1 MOL     -0.046381
    141 H60        -7.0790   -3.0830   -0.8430 h1        1 MOL      0.068931
    142 H61        -4.5690   -4.2630   -1.4320 hc        1 MOL      0.082711
    143 H62        -5.6600   -4.0440   -2.7540 hc        1 MOL      0.082711
    144 H63        -3.5380   -1.9920   -1.8920 hc        1 MOL      0.058748
    145 H64        -3.7640   -2.7760   -3.4740 hc        1 MOL      0.058748
    146 H65        -4.7970   -0.3920   -3.0580 h1        1 MOL      0.020711
    147 H66        -5.9290   -1.6860   -3.6880 h1        1 MOL      0.020711
    148 N13        -4.7200   -1.8070    0.8730 n         1 MOL      0.023103
    149 C50        -4.0910   -1.8260    2.1800 c3        1 MOL     -0.004663
    150 C51        -4.7900   -1.0140    3.2790 c         1 MOL      0.452288
    151 O21        -5.0350   -1.5380    4.3360 o         1 MOL     -0.547502
    152 C52        -2.6510   -1.3160    2.0180 c3        1 MOL     -0.002776
    153 C53        -1.8780   -1.7970    0.7800 c3        1 MOL      0.163522
    154 C54        -0.4400   -1.3950    0.8250 c         1 MOL      0.386405
    155 O22        -0.0200   -0.5630    1.6560 o         1 MOL     -0.620150
    156 O23         0.2740   -1.9310   -0.0370 o         1 MOL     -0.620150
    157 H67        -4.4600   -1.0930    0.2140 hn        1 MOL     -0.379377
    158 H68        -3.9280   -2.8340    2.5540 h1        1 MOL      0.052541
    159 H69        -2.1350   -1.6150    2.9350 hc        1 MOL      0.047128
    160 H70        -2.6360   -0.2280    1.9920 hc        1 MOL      0.047128
    161 H71        -2.1870   -1.3430   -0.1700 hc        1 MOL      0.036896
    162 H72        -2.0270   -2.8700    0.6370 hc        1 MOL      0.036896
    163 N14        -5.3480    0.1620    2.9480 n         1 MOL     -0.054593
    164 C55        -6.4300    0.8130    3.7170 c3        1 MOL     -0.324760
    165 H73        -7.2530    0.1110    3.8490 h1        1 MOL      0.111907
    166 H74        -6.0520    1.1150    4.6930 h1        1 MOL      0.111907
    167 H75        -6.7850    1.6900    3.1750 h1        1 MOL      0.111907
    168 H76        -5.0180    0.5490    2.0740 hn        1 MOL      0.135524
    169 Ca1         2.2030   -0.0260   -0.0900 Ca        1 MOL      1.711751
    170 O24         2.1230    0.0440    3.0190 oh        1 MOL     -0.722774
    171 H77         1.2250   -0.2240    2.7960 ho        1 MOL      0.355130
    172 H78         2.1840   -0.1160    3.9560 ho        1 MOL      0.355130
    173 O25         4.1300    0.9130    1.5950 oh        1 MOL     -0.722774
    174 H79         3.6570    1.0110    2.4220 ho        1 MOL      0.355130
    175 H80         4.7590    0.2120    1.7620 ho        1 MOL      0.355130
@<TRIPOS>BOND
     1    1    2 1   
     2    1    4 1   
     3    1    5 1   
     4    1    6 1   
     5    2    3 2   
     6    2    7 1   
     7    7    8 1   
     8    7   15 1   
     9    8    9 1   
    10    8   11 1   
    11    8   16 1   
    12    9   10 2   
    13    9   19 1   
    14   11   12 1   
    15   11   17 1   
    16   11   18 1   
    17   12   13 1   
    18   12   14 1   
    19   19   20 1   
    20   19   24 1   
    21   20   21 1   
    22   20   23 1   
    23   20   25 1   
    24   21   22 2   
    25   21   29 1   
    26   23   26 1   
    27   23   27 1   
    28   23   28 1   
    29   29   30 1   
    30   29   37 1   
    31   30   31 1   
    32   30   33 1   
    33   30   38 1   
    34   31   32 2   
    35   31   41 1   
    36   33   34 1   
    37   33   39 1   
    38   33   40 1   
    39   34   35 1   
    40   34   36 1   
    41   41   42 1   
    42   41   45 1   
    43   42   43 1   
    44   42   46 1   
    45   42   47 1   
    46   43   44 2   
    47   43   48 1   
    48   48   49 1   
    49   48   56 1   
    50   49   50 1   
    51   49   52 1   
    52   49   57 1   
    53   50   51 2   
    54   50   62 1   
    55   52   53 1   
    56   52   58 1   
    57   52   59 1   
    58   53   54 1   
    59   53   55 2   
    60   54   60 1   
    61   54   61 1   
    62   62   63 1   
    63   62   66 1   
    64   63   64 1   
    65   63   67 1   
    66   63   68 1   
    67   64   65 2   
    68   64   69 1   
    69   69   70 1   
    70   69   76 1   
    71   70   71 1   
    72   70   73 1   
    73   70   77 1   
    74   71   72 2   
    75   71   83 1   
    76   73   74 1   
    77   73   75 1   
    78   73   78 1   
    79   74   80 1   
    80   74   81 1   
    81   74   82 1   
    82   75   79 1   
    83   83   84 1   
    84   83   91 1   
    85   84   85 1   
    86   84   87 1   
    87   84   92 1   
    88   85   86 2   
    89   85  102 1   
    90   87   88 1   
    91   87   89 1   
    92   87   93 1   
    93   88   90 1   
    94   88   94 1   
    95   88   95 1   
    96   89   96 1   
    97   89   97 1   
    98   89   98 1   
    99   90   99 1   
   100   90  100 1   
   101   90  101 1   
   102  102  103 1   
   103  102  110 1   
   104  103  104 1   
   105  103  106 1   
   106  103  111 1   
   107  104  105 2   
   108  104  114 1   
   109  106  107 1   
   110  106  112 1   
   111  106  113 1   
   112  107  108 1   
   113  107  109 1   
   114  114  115 1   
   115  114  125 1   
   116  115  116 1   
   117  115  118 1   
   118  115  126 1   
   119  116  117 2   
   120  116  134 1   
   121  118  119 1   
   122  118  127 1   
   123  118  128 1   
   124  119  120 ar  
   125  119  121 ar  
   126  120  122 ar  
   127  120  129 1   
   128  121  123 ar  
   129  121  130 1   
   130  122  124 ar  
   131  122  131 1   
   132  123  124 ar  
   133  123  132 1   
   134  124  133 1   
   135  134  135 1   
   136  134  140 1   
   137  135  136 1   
   138  135  138 1   
   139  135  141 1   
   140  136  137 2   
   141  136  148 1   
   142  138  139 1   
   143  138  142 1   
   144  138  143 1   
   145  139  140 1   
   146  139  144 1   
   147  139  145 1   
   148  140  146 1   
   149  140  147 1   
   150  148  149 1   
   151  148  157 1   
   152  149  150 1   
   153  149  152 1   
   154  149  158 1   
   155  150  151 2   
   156  150  163 1   
   157  152  153 1   
   158  152  159 1   
   159  152  160 1   
   160  153  154 1   
   161  153  161 1   
   162  153  162 1   
   163  154  155 1   
   164  154  156 1   
   165  163  164 1   
   166  163  168 1   
   167  164  165 1   
   168  164  166 1   
   169  164  167 1   
   170  170  171 1   
   171  170  172 1   
   172  173  174 1   
   173  173  175 1   
@<TRIPOS>SUBSTRUCTURE
     1 MOL         1 TEMP              0 ****  ****    0 ROOT
