@<TRIPOS>MOLECULE
MOL
  175   173     1     0     0
SMALL
resp


@<TRIPOS>ATOM
      1 C1          0.6840    3.9340    5.3370 c3        1 MOL     -0.325207
      2 C2         -0.1230    3.9070    3.9960 c         1 MOL      0.725957
      3 O1          0.5140    4.0790    2.9620 o         1 MOL     -0.573966
      4 H1          0.1920    4.6020    6.0430 hc        1 MOL      0.075449
      5 H2          0.7260    2.9290    5.7570 hc        1 MOL      0.075449
      6 H3          1.6970    4.2890    5.1450 hc        1 MOL      0.075449
      7 N1         -1.4300    3.7370    3.9660 n         1 MOL     -0.698234
      8 C3         -2.1620    3.4000    2.7390 c3        1 MOL      0.195008
      9 C4         -2.3110    4.7180    1.9320 c         1 MOL      0.637077
     10 O2         -2.8260    5.7570    2.4090 o         1 MOL     -0.576248
     11 C5         -3.4490    2.6230    3.1100 c3        1 MOL     -0.397454
     12 C6         -4.2560    2.1850    1.8340 c         1 MOL      0.748847
     13 O3         -5.4850    1.9550    1.9080 o         1 MOL     -0.663794
     14 O4         -3.5760    1.9330    0.8430 o         1 MOL     -0.663794
     15 H4         -1.8610    3.6540    4.8770 hn        1 MOL      0.336395
     16 H5         -1.5840    2.6800    2.1680 h1        1 MOL      0.128142
     17 H6         -4.0430    3.2900    3.7340 hc        1 MOL      0.087123
     18 H7         -3.2350    1.6930    3.6450 hc        1 MOL      0.087123
     19 N2         -2.0810    4.5760    0.5840 n         1 MOL     -0.502532
     20 C7         -2.2190    5.6160   -0.4180 c3        1 MOL      0.106708
     21 C8         -3.1850    5.3060   -1.5440 c         1 MOL      0.584226
     22 O5         -3.4050    6.2060   -2.3620 o         1 MOL     -0.570740
     23 C9         -0.7980    5.9260   -1.0110 c3        1 MOL     -0.168412
     24 H8         -1.7360    3.6510    0.3470 hn        1 MOL      0.231795
     25 H9         -2.5790    6.5030    0.1050 h1        1 MOL      0.062678
     26 H10        -0.1780    6.4270   -0.2740 hc        1 MOL      0.046190
     27 H11        -0.1710    5.0940   -1.3180 hc        1 MOL      0.046190
     28 H12        -0.8780    6.6490   -1.8280 hc        1 MOL      0.046190
     29 N3         -3.8900    4.1350   -1.5070 n         1 MOL     -0.578832
     30 C10        -4.7640    3.6720   -2.5630 c3        1 MOL      0.204624
     31 C11        -6.0330    2.8990   -2.0910 c         1 MOL      0.326395
     32 O6         -7.0030    2.8980   -2.8250 o         1 MOL     -0.581639
     33 C12        -4.0290    2.8350   -3.6160 c3        1 MOL     -0.178013
     34 C13        -2.9500    1.9050   -3.0730 c         1 MOL      0.617461
     35 O7         -3.4130    1.0050   -2.2730 o         1 MOL     -0.624302
     36 O8         -1.7820    1.9250   -3.4980 o         1 MOL     -0.624302
     37 H13        -3.3920    3.4990   -0.8970 hn        1 MOL      0.363767
     38 H14        -5.1980    4.5540   -3.0250 h1        1 MOL      0.062980
     39 H15        -3.6910    3.6020   -4.3110 hc        1 MOL      0.038888
     40 H16        -4.6870    2.2640   -4.2880 hc        1 MOL      0.038888
     41 N4         -5.9180    2.0700   -1.0520 n         1 MOL      0.078671
     42 C14        -7.1600    1.2690   -0.6410 c3        1 MOL     -0.338012
     43 C15        -7.0820   -0.2230   -0.9390 c         1 MOL      0.557219
     44 O9         -8.0080   -0.9110   -0.4570 o         1 MOL     -0.632280
     45 H17        -5.0900    2.1800   -0.4760 hn        1 MOL     -0.027927
     46 H18        -8.0390    1.6290   -1.1900 h1        1 MOL      0.145821
     47 H19        -7.2550    1.4730    0.4230 h1        1 MOL      0.145821
     48 N5         -6.0240   -0.7130   -1.5560 n         1 MOL     -0.154406
     49 C16        -6.0140   -2.0480   -2.1250 c3        1 MOL     -0.069176
     50 C17        -6.0650   -3.2450   -1.1530 c         1 MOL      0.413087
     51 O10        -5.9720   -4.3920   -1.5620 o         1 MOL     -0.533629
     52 C18        -4.8850   -1.9780   -3.1510 c3        1 MOL      0.032640
     53 C19        -3.5010   -2.0400   -2.5970 c         1 MOL      0.500913
     54 N6         -2.5440   -2.2800   -3.4530 n         1 MOL     -0.667043
     55 O11        -3.1620   -2.0700   -1.4650 o         1 MOL     -0.404727
     56 H20        -5.3340   -0.0640   -1.9090 hn        1 MOL      0.096104
     57 H21        -6.9450   -2.0430   -2.6790 h1        1 MOL      0.079076
     58 H22        -4.9870   -1.0940   -3.7770 hc        1 MOL      0.021385
     59 H23        -5.0150   -2.7770   -3.8710 hc        1 MOL      0.021385
     60 H24        -2.6990   -2.0870   -4.4340 hn        1 MOL      0.325002
     61 H25        -1.6700   -1.9470   -3.0860 hn        1 MOL      0.325002
     62 N7         -6.2360   -3.0830    0.1230 n         1 MOL     -0.151018
     63 C20        -6.3840   -4.1900    1.0750 c3        1 MOL     -0.289251
     64 C21        -5.0720   -4.6080    1.7060 c         1 MOL      0.550482
     65 O12        -5.0990   -5.5790    2.4880 o         1 MOL     -0.577998
     66 H26        -6.2390   -2.1570    0.5310 hn        1 MOL      0.237744
     67 H27        -6.8410   -5.1120    0.7210 h1        1 MOL      0.138092
     68 H28        -7.0260   -3.7390    1.8350 h1        1 MOL      0.138092
     69 N8         -3.9780   -4.0010    1.2560 n         1 MOL     -0.389280
     70 C22        -2.6410   -4.5670    1.3340 c3        1 MOL     -0.080187
     71 C23        -1.5440   -3.4710    1.4770 c         1 MOL      0.693193
     72 O13        -1.7700   -2.3910    0.9670 o         1 MOL     -0.638882
     73 C24        -2.2190   -5.4280    0.1160 c3        1 MOL      0.432415
     74 C25        -2.9590   -6.7630    0.0190 c3        1 MOL     -0.372083
     75 O14        -2.5420   -4.7470   -1.1150 oh        1 MOL     -0.591767
     76 H29        -4.2070   -3.2050    0.6770 hn        1 MOL      0.275905
     77 H30        -2.6080   -5.2210    2.2160 h1        1 MOL      0.064946
     78 H31        -1.1580   -5.6830    0.1650 h1        1 MOL     -0.016985
     79 H32        -2.6110   -3.8040   -0.9250 ho        1 MOL      0.320682
     80 H33        -4.0420   -6.6720   -0.1080 hc        1 MOL      0.096378
     81 H34        -2.6120   -7.3820   -0.8110 hc        1 MOL      0.096378
     82 H35        -2.7210   -7.3960    0.8690 hc        1 MOL      0.096378
     83 N9         -0.3930   -3.7680    2.0290 n         1 MOL     -0.733147
     84 C26         0.8100   -2.9420    1.9380 c3        1 MOL      0.109068
     85 C27         1.4840   -3.1040    0.4950 c         1 MOL      0.684233
     86 O15         1.9220   -4.1790    0.1560 o         1 MOL     -0.585921
     87 C28         1.8130   -3.3370    2.9740 c3        1 MOL      0.092900
     88 C29         1.2320   -3.4390    4.3890 c3        1 MOL      0.043321
     89 C30         2.9750   -2.3070    2.9900 c3        1 MOL     -0.171478
     90 C31         2.1410   -3.3540    5.6460 c3        1 MOL     -0.240622
     91 H36        -0.2690   -4.6650    2.4690 hn        1 MOL      0.321323
     92 H37         0.5500   -1.8940    2.0600 h1        1 MOL      0.133545
     93 H38         2.2870   -4.2410    2.5880 hc        1 MOL     -0.019923
     94 H39         0.7140   -4.3920    4.3830 hc        1 MOL      0.003368
     95 H40         0.4560   -2.6800    4.5080 hc        1 MOL      0.003368
     96 H41         3.4350   -2.2150    2.0010 hc        1 MOL      0.026106
     97 H42         2.4920   -1.4090    3.3620 hc        1 MOL      0.026106
     98 H43         3.7660   -2.5800    3.6920 hc        1 MOL      0.026106
     99 H44         3.0960   -3.8580    5.5520 hc        1 MOL      0.058971
    100 H45         2.4080   -2.3010    5.7260 hc        1 MOL      0.058971
    101 H46         1.5970   -3.8060    6.4730 hc        1 MOL      0.058971
    102 N10         1.5980   -1.9120   -0.1570 n         1 MOL     -0.312455
    103 C32         2.3670   -1.7400   -1.3700 c3        1 MOL      0.035377
    104 C33         3.8450   -1.2810   -0.9890 c         1 MOL      0.194154
    105 O16         4.0490   -0.6080    0.0360 o         1 MOL     -0.094985
    106 C34         1.7210   -0.7600   -2.3280 c3        1 MOL     -0.209837
    107 C35         0.2540   -1.0680   -2.7120 c         1 MOL      0.677728
    108 O17        -0.6920   -0.9140   -1.8570 o         1 MOL     -0.646471
    109 O18        -0.0160   -1.4330   -3.9270 o         1 MOL     -0.646471
    110 H47         1.2570   -1.0380    0.2110 hn        1 MOL      0.061892
    111 H48         2.4420   -2.6600   -1.9510 h1        1 MOL      0.067272
    112 H49         2.3210   -0.5940   -3.2170 hc        1 MOL      0.067521
    113 H50         1.7160    0.2140   -1.8250 hc        1 MOL      0.067521
    114 N11         4.8500   -1.5020   -1.8310 n         1 MOL     -0.349635
    115 C36         6.2480   -1.2340   -1.5460 c3        1 MOL      0.014388
    116 C37         6.6110    0.1720   -0.9800 c         1 MOL      0.390373
    117 O19         7.2630    0.2230    0.0600 o         1 MOL     -0.494067
    118 C38         7.1480   -1.5830   -2.7870 c3        1 MOL     -0.071654
    119 C39         8.6580   -1.6970   -2.5300 ca        1 MOL      0.061447
    120 C40         9.1070   -2.6940   -1.6040 ca        1 MOL     -0.144733
    121 C41         9.5880   -0.8820   -3.2000 ca        1 MOL     -0.144733
    122 C42        10.4320   -2.8370   -1.3160 ca        1 MOL     -0.129947
    123 C43        10.8920   -1.1540   -2.9980 ca        1 MOL     -0.129947
    124 C44        11.3560   -2.0490   -2.0300 ca        1 MOL     -0.062997
    125 H51         4.7110   -2.0970   -2.6340 hn        1 MOL      0.284065
    126 H52         6.4740   -1.9670   -0.7690 h1        1 MOL      0.099351
    127 H53         6.9420   -0.9430   -3.6520 hc        1 MOL      0.040593
    128 H54         6.8480   -2.5480   -3.1820 hc        1 MOL      0.040593
    129 H55         8.3730   -3.3360   -1.1340 ha        1 MOL      0.117299
    130 H56         9.2270   -0.0520   -3.7700 ha        1 MOL      0.117299
    131 H57        10.8320   -3.5030   -0.5570 ha        1 MOL      0.111144
    132 H58        11.5950   -0.4830   -3.4600 ha        1 MOL      0.111144
    133 H59        12.4210   -2.2260   -2.0140 ha        1 MOL      0.078240
    134 N12         6.1400    1.2870   -1.5490 n         1 MOL      0.033903
    135 C45         6.4630    2.5210   -0.9050 c3        1 MOL     -0.143689
    136 C46         5.7500    2.7600    0.4450 c         1 MOL      0.412231
    137 O20         6.3190    3.4680    1.2800 o         1 MOL     -0.498473
    138 C47         6.0590    3.6180   -1.8620 c3        1 MOL     -0.084307
    139 C48         5.0730    2.9570   -2.7500 c3        1 MOL      0.002039
    140 C49         5.6240    1.5450   -2.8730 c3        1 MOL     -0.048139
    141 H60         7.5410    2.5860   -0.7380 h1        1 MOL      0.088265
    142 H61         5.8940    4.6420   -1.5320 hc        1 MOL      0.060372
    143 H62         6.9370    3.8870   -2.4610 hc        1 MOL      0.060372
    144 H63         4.0910    2.9600   -2.2830 hc        1 MOL      0.023831
    145 H64         5.0800    3.4440   -3.7250 hc        1 MOL      0.023831
    146 H65         4.8880    0.7950   -3.1490 h1        1 MOL      0.026761
    147 H66         6.4540    1.6390   -3.5790 h1        1 MOL      0.026761
    148 N13         4.5970    2.0930    0.7140 n         1 MOL     -0.224972
    149 C50         4.0320    2.1270    2.0000 c3        1 MOL     -0.045809
    150 C51         4.9240    1.3060    3.0170 c         1 MOL      0.409750
    151 O21         5.2170    1.7740    4.1350 o         1 MOL     -0.545947
    152 C52         2.6680    1.4380    1.8340 c3        1 MOL     -0.078186
    153 C53         1.8810    1.9100    0.5950 c3        1 MOL      0.002137
    154 C54         0.4580    1.3670    0.5980 c         1 MOL      0.554544
    155 O22         0.2460    0.2630    1.0670 o         1 MOL     -0.646528
    156 O23        -0.5070    1.9720    0.0170 o         1 MOL     -0.646528
    157 H67         4.2790    1.3920    0.0530 hn        1 MOL      0.171273
    158 H68         3.9490    3.1390    2.4000 h1        1 MOL      0.109661
    159 H69         2.0160    1.7070    2.6730 hc        1 MOL      0.022625
    160 H70         2.7230    0.3560    1.7490 hc        1 MOL      0.022625
    161 H71         2.3680    1.5260   -0.2980 hc        1 MOL      0.037632
    162 H72         1.8870    2.9970    0.5050 hc        1 MOL      0.037632
    163 N14         5.4630    0.1540    2.5850 n         1 MOL      0.012967
    164 C55         6.5490   -0.6260    3.2410 c3        1 MOL     -0.270650
    165 H73         6.8430   -1.4540    2.5950 h1        1 MOL      0.095530
    166 H74         7.4090    0.0220    3.4140 h1        1 MOL      0.095530
    167 H75         6.1910   -1.0190    4.1930 h1        1 MOL      0.095530
    168 H76         5.2550   -0.2460    1.6880 hn        1 MOL      0.022432
    169 Ca1        -2.2640   -0.0290   -0.1300 Ca        1 MOL      1.549257
    170 O24        -4.5660   -0.7540    1.1570 oh        1 MOL     -0.730871
    171 H77        -4.9610    0.1100    1.2980 ho        1 MOL      0.358263
    172 H78        -4.6580   -1.1930    2.0000 ho        1 MOL      0.358263
    173 O25        -1.6760   -0.3250    2.5400 oh        1 MOL     -0.730871
    174 H79        -0.8220   -0.1550    2.1370 ho        1 MOL      0.358263
    175 H80        -1.6070    0.0660    3.4160 ho        1 MOL      0.358263
@<TRIPOS>BOND
     1    1    2 1   
     2    1    4 1   
     3    1    5 1   
     4    1    6 1   
     5    2    3 2   
     6    2    7 1   
     7    7    8 1   
     8    7   15 1   
     9    8    9 1   
    10    8   11 1   
    11    8   16 1   
    12    9   10 2   
    13    9   19 1   
    14   11   12 1   
    15   11   17 1   
    16   11   18 1   
    17   12   13 1   
    18   12   14 1   
    19   19   20 1   
    20   19   24 1   
    21   20   21 1   
    22   20   23 1   
    23   20   25 1   
    24   21   22 2   
    25   21   29 1   
    26   23   26 1   
    27   23   27 1   
    28   23   28 1   
    29   29   30 1   
    30   29   37 1   
    31   30   31 1   
    32   30   33 1   
    33   30   38 1   
    34   31   32 2   
    35   31   41 1   
    36   33   34 1   
    37   33   39 1   
    38   33   40 1   
    39   34   35 1   
    40   34   36 1   
    41   41   42 1   
    42   41   45 1   
    43   42   43 1   
    44   42   46 1   
    45   42   47 1   
    46   43   44 2   
    47   43   48 1   
    48   48   49 1   
    49   48   56 1   
    50   49   50 1   
    51   49   52 1   
    52   49   57 1   
    53   50   51 2   
    54   50   62 1   
    55   52   53 1   
    56   52   58 1   
    57   52   59 1   
    58   53   54 1   
    59   53   55 2   
    60   54   60 1   
    61   54   61 1   
    62   62   63 1   
    63   62   66 1   
    64   63   64 1   
    65   63   67 1   
    66   63   68 1   
    67   64   65 2   
    68   64   69 1   
    69   69   70 1   
    70   69   76 1   
    71   70   71 1   
    72   70   73 1   
    73   70   77 1   
    74   71   72 2   
    75   71   83 1   
    76   73   74 1   
    77   73   75 1   
    78   73   78 1   
    79   74   80 1   
    80   74   81 1   
    81   74   82 1   
    82   75   79 1   
    83   83   84 1   
    84   83   91 1   
    85   84   85 1   
    86   84   87 1   
    87   84   92 1   
    88   85   86 2   
    89   85  102 1   
    90   87   88 1   
    91   87   89 1   
    92   87   93 1   
    93   88   90 1   
    94   88   94 1   
    95   88   95 1   
    96   89   96 1   
    97   89   97 1   
    98   89   98 1   
    99   90   99 1   
   100   90  100 1   
   101   90  101 1   
   102  102  103 1   
   103  102  110 1   
   104  103  104 1   
   105  103  106 1   
   106  103  111 1   
   107  104  105 2   
   108  104  114 1   
   109  106  107 1   
   110  106  112 1   
   111  106  113 1   
   112  107  108 1   
   113  107  109 1   
   114  114  115 1   
   115  114  125 1   
   116  115  116 1   
   117  115  118 1   
   118  115  126 1   
   119  116  117 2   
   120  116  134 1   
   121  118  119 1   
   122  118  127 1   
   123  118  128 1   
   124  119  120 ar  
   125  119  121 ar  
   126  120  122 ar  
   127  120  129 1   
   128  121  123 ar  
   129  121  130 1   
   130  122  124 ar  
   131  122  131 1   
   132  123  124 ar  
   133  123  132 1   
   134  124  133 1   
   135  134  135 1   
   136  134  140 1   
   137  135  136 1   
   138  135  138 1   
   139  135  141 1   
   140  136  137 2   
   141  136  148 1   
   142  138  139 1   
   143  138  142 1   
   144  138  143 1   
   145  139  140 1   
   146  139  144 1   
   147  139  145 1   
   148  140  146 1   
   149  140  147 1   
   150  148  149 1   
   151  148  157 1   
   152  149  150 1   
   153  149  152 1   
   154  149  158 1   
   155  150  151 2   
   156  150  163 1   
   157  152  153 1   
   158  152  159 1   
   159  152  160 1   
   160  153  154 1   
   161  153  161 1   
   162  153  162 1   
   163  154  155 1   
   164  154  156 1   
   165  163  164 1   
   166  163  168 1   
   167  164  165 1   
   168  164  166 1   
   169  164  167 1   
   170  170  171 1   
   171  170  172 1   
   172  173  174 1   
   173  173  175 1   
@<TRIPOS>SUBSTRUCTURE
     1 MOL         1 TEMP              0 ****  ****    0 ROOT
