@<TRIPOS>MOLECULE
MOL
  183   181     1     0     0
SMALL
resp


@<TRIPOS>ATOM
      1 C1          0.8260    3.7050   -5.7740 c3        1 MOL     -0.163216
      2 C2          1.1000    3.3280   -4.3480 c         1 MOL      0.825975
      3 O1          0.2270    3.4550   -3.4880 o         1 MOL     -0.612139
      4 H1          1.4740    4.5340   -6.0600 hc        1 MOL      0.026873
      5 H2          1.0230    2.8500   -6.4210 hc        1 MOL      0.026873
      6 H3         -0.2160    4.0070   -5.8770 hc        1 MOL      0.026873
      7 N1          2.3150    2.7680   -4.0030 n         1 MOL     -0.710897
      8 C3          2.7030    2.4020   -2.6320 c3        1 MOL      0.121163
      9 C4          3.0400    3.6650   -1.8300 c         1 MOL      0.674111
     10 O2          3.8300    4.4610   -2.3090 o         1 MOL     -0.602423
     11 C5          3.9250    1.5290   -2.6480 c3        1 MOL     -0.262468
     12 C6          4.3490    1.0110   -1.2370 c         1 MOL      0.737171
     13 O3          5.1900    0.1300   -1.2030 o         1 MOL     -0.625481
     14 O4          3.9180    1.5270   -0.2080 o         1 MOL     -0.625481
     15 H4          2.9530    2.5600   -4.7530 hn        1 MOL      0.339164
     16 H5          1.8980    1.8200   -2.1910 h1        1 MOL      0.019231
     17 H6          4.6430    2.1140   -3.2370 hc        1 MOL      0.057531
     18 H7          3.6940    0.6340   -3.2260 hc        1 MOL      0.057531
     19 N2          2.3790    3.9080   -0.7020 n         1 MOL     -0.308614
     20 C7          2.4300    5.1450    0.1110 c3        1 MOL     -0.441552
     21 C8          2.9530    4.9050    1.5310 c         1 MOL      0.674903
     22 O5          2.5690    5.5690    2.4930 o         1 MOL     -0.568748
     23 C9          1.2010    6.0150   -0.0230 c3        1 MOL      0.540159
     24 C10        -0.1330    5.4660    0.3560 c3        1 MOL     -0.072363
     25 C11         1.2170    6.6260   -1.4760 c3        1 MOL     -0.401370
     26 C12        -1.3090    6.3800    0.2630 c3        1 MOL     -0.233776
     27 H8          1.8300    3.1530   -0.3280 hn        1 MOL      0.179570
     28 H9          3.2410    5.7270   -0.3170 h1        1 MOL      0.143751
     29 H10         1.3780    6.8860    0.5990 hc        1 MOL     -0.106173
     30 H11        -0.0650    5.2300    1.4220 hc        1 MOL      0.079965
     31 H12        -0.4200    4.6330   -0.2870 hc        1 MOL      0.079965
     32 H13         0.2800    7.1790   -1.5370 hc        1 MOL      0.078185
     33 H14         2.1080    7.2470   -1.4370 hc        1 MOL      0.078185
     34 H15         1.2780    5.8260   -2.2170 hc        1 MOL      0.078185
     35 H16        -2.1390    5.8980    0.7800 hc        1 MOL      0.044036
     36 H17        -1.0390    7.2980    0.7950 hc        1 MOL      0.044036
     37 H18        -1.5760    6.6580   -0.7560 hc        1 MOL      0.044036
     38 N3          3.7820    3.8470    1.6630 n         1 MOL     -0.363181
     39 C13         4.7740    3.6360    2.7440 c3        1 MOL     -0.158465
     40 C14         6.1900    3.0990    2.2540 c         1 MOL      0.550847
     41 O6          7.1840    3.3330    2.9540 o         1 MOL     -0.544907
     42 C15         4.2150    2.6970    3.9180 c3        1 MOL      0.048094
     43 C16         3.6640    1.3700    3.4170 c         1 MOL      0.630938
     44 O7          4.4610    0.5020    3.0870 o         1 MOL     -0.711096
     45 O8          2.4340    1.1970    3.2090 o         1 MOL     -0.711096
     46 H19         3.7480    3.1750    0.9130 hn        1 MOL      0.150944
     47 H20         4.9910    4.6390    3.1090 h1        1 MOL      0.093965
     48 H21         3.4230    3.2430    4.4160 hc        1 MOL     -0.000144
     49 H22         5.0140    2.5690    4.6530 hc        1 MOL     -0.000144
     50 N4          6.3470    2.5020    1.0520 n         1 MOL     -0.234262
     51 C17         7.6090    1.8590    0.5840 c3        1 MOL     -0.323656
     52 C18         7.8190    0.5600    1.2930 c         1 MOL      0.738341
     53 O9          8.6410    0.5720    2.1930 o         1 MOL     -0.576614
     54 H23         5.5000    2.2130    0.5880 hn        1 MOL      0.216643
     55 H24         8.4510    2.5090    0.8360 h1        1 MOL      0.105247
     56 H25         7.4170    1.5980   -0.4580 h1        1 MOL      0.105247
     57 N5          7.1960   -0.5470    0.8930 n         1 MOL     -0.422327
     58 C19         7.6360   -1.9510    1.1490 c3        1 MOL      0.029546
     59 C20         7.6410   -2.8780   -0.1500 c         1 MOL      0.424562
     60 O10         8.2460   -3.9890   -0.1650 o         1 MOL     -0.527431
     61 C21         6.8550   -2.5580    2.3070 c3        1 MOL     -0.124481
     62 C22         5.4000   -2.6430    2.2260 c         1 MOL      0.907361
     63 O11         4.8830   -3.4630    2.9980 o         1 MOL     -0.786065
     64 O12         4.7290   -2.0360    1.3590 o         1 MOL     -0.786065
     65 H26         6.4090   -0.4640    0.2660 hn        1 MOL      0.143592
     66 H27         8.6820   -1.9230    1.4650 h1        1 MOL      0.049437
     67 H28         7.0490   -1.8890    3.1510 hc        1 MOL      0.042311
     68 H29         7.3210   -3.5190    2.5170 hc        1 MOL      0.042311
     69 N6          6.9270   -2.4380   -1.2210 n         1 MOL     -0.295583
     70 C23         6.9110   -3.2750   -2.4530 c3        1 MOL      0.109469
     71 C24         5.5770   -3.8400   -2.8260 c         1 MOL      0.522356
     72 O13         5.4400   -4.6190   -3.7680 o         1 MOL     -0.596069
     73 H30         6.2920   -1.6550   -1.1390 hn        1 MOL      0.202764
     74 H31         7.5970   -4.1200   -2.3760 h1        1 MOL      0.018669
     75 H32         7.3240   -2.6610   -3.2510 h1        1 MOL      0.018669
     76 N7          4.5640   -3.3390   -2.1460 n         1 MOL     -0.346297
     77 C25         3.2100   -3.7900   -2.2830 c3        1 MOL     -0.000340
     78 C26         2.1570   -2.7640   -1.9240 c         1 MOL      0.659462
     79 O14         2.4900   -1.8220   -1.1950 o         1 MOL     -0.628803
     80 C27         3.0310   -5.1000   -1.4590 c3        1 MOL     -0.348531
     81 C28         3.0360   -4.8510    0.1060 c3        1 MOL     -0.145907
     82 C29         2.7450   -6.0980    0.8490 c         1 MOL      0.753728
     83 N8          2.8370   -6.0740    2.1610 n         1 MOL     -0.856681
     84 O15         2.4260   -7.1080    0.2870 o         1 MOL     -0.615336
     85 H33         4.7600   -2.6380   -1.4460 hn        1 MOL      0.239093
     86 H34         3.1420   -4.1210   -3.3190 h1        1 MOL      0.073343
     87 H35         3.8420   -5.7620   -1.7780 hc        1 MOL      0.141208
     88 H36         2.2470   -5.6700   -1.9460 hc        1 MOL      0.141208
     89 H37         2.2740   -4.0980    0.2930 hc        1 MOL      0.067363
     90 H38         3.9620   -4.4640    0.5260 hc        1 MOL      0.067363
     91 H39         3.1640   -5.2470    2.6260 hn        1 MOL      0.369681
     92 H40         2.6310   -6.8950    2.7100 hn        1 MOL      0.369681
     93 N9          0.8780   -2.8620   -2.4160 n         1 MOL     -0.542058
     94 C30        -0.1850   -1.9090   -2.3240 c3        1 MOL      0.049672
     95 C31        -1.5150   -2.5120   -1.8720 c         1 MOL      0.435963
     96 O16        -2.0790   -3.4310   -2.4120 o         1 MOL     -0.549949
     97 C32        -0.4310   -1.3700   -3.7390 c3        1 MOL      0.438628
     98 C33        -1.5020   -0.2330   -3.9660 c3        1 MOL     -0.467389
     99 C34         0.8960   -0.9590   -4.4430 c3        1 MOL     -0.467389
    100 H41         0.7940   -3.5360   -3.1680 hn        1 MOL      0.275205
    101 H42         0.1290   -1.0290   -1.7580 h1        1 MOL      0.165437
    102 H43        -0.8910   -2.2100   -4.2730 hc        1 MOL     -0.082755
    103 H44        -1.6350   -0.0540   -5.0300 hc        1 MOL      0.099543
    104 H45        -2.4030   -0.6540   -3.5170 hc        1 MOL      0.099543
    105 H46        -1.0790    0.6790   -3.5440 hc        1 MOL      0.099543
    106 H47         1.4100   -0.1910   -3.8660 hc        1 MOL      0.099543
    107 H48         1.4760   -1.8730   -4.4700 hc        1 MOL      0.099543
    108 H49         0.7350   -0.6120   -5.4650 hc        1 MOL      0.099543
    109 N10        -2.0170   -2.0380   -0.7080 n         1 MOL     -0.026369
    110 C35        -3.1530   -2.5210   -0.0100 c3        1 MOL     -0.003259
    111 C36        -4.3880   -1.9800   -0.6540 c         1 MOL      0.277102
    112 O17        -4.3670   -0.9520   -1.3700 o         1 MOL     -0.283744
    113 C37        -3.0220   -2.0580    1.4270 c3        1 MOL     -0.518332
    114 C38        -4.0380   -2.6020    2.4470 c         1 MOL      0.631895
    115 N11        -4.3470   -3.8800    2.3850 n         1 MOL     -0.750141
    116 O18        -4.5310   -2.0230    3.3970 o         1 MOL     -0.439143
    117 H50        -1.4980   -1.3450   -0.1980 hn        1 MOL      0.018334
    118 H51        -3.2080   -3.6080   -0.0710 h1        1 MOL      0.053250
    119 H52        -2.9840   -0.9690    1.4490 hc        1 MOL      0.213942
    120 H53        -2.1250   -2.4920    1.8630 hc        1 MOL      0.213942
    121 H54        -3.9370   -4.4600    1.6600 hn        1 MOL      0.342549
    122 H55        -4.9960   -4.2240    3.0690 hn        1 MOL      0.342549
    123 N12        -5.5350   -2.5090   -0.1450 n         1 MOL     -0.250358
    124 C39        -6.8220   -1.8680   -0.3640 c3        1 MOL      0.125090
    125 C40        -6.7580   -0.3650    0.0560 c         1 MOL      0.613504
    126 O19        -7.0720    0.4850   -0.7740 o         1 MOL     -0.539344
    127 C41        -8.0200   -2.7290    0.1680 c3        1 MOL     -0.289866
    128 C42        -9.2400   -2.0530   -0.3540 ca        1 MOL      0.087915
    129 C43        -9.6450   -2.1970   -1.6860 ca        1 MOL     -0.200838
    130 C44        -9.9960   -1.1070    0.4760 ca        1 MOL     -0.200838
    131 C45       -10.8070   -1.5370   -2.1940 ca        1 MOL     -0.287518
    132 C46       -11.1360   -0.4360   -0.0490 ca        1 MOL     -0.287518
    133 C47       -11.5880   -0.6590   -1.3720 ca        1 MOL      0.405665
    134 O20       -12.7250   -0.0950   -1.8180 oh        1 MOL     -0.550086
    135 H56        -5.5270   -3.4170    0.3040 hn        1 MOL      0.184107
    136 H57        -6.8600   -1.8900   -1.4450 h1        1 MOL      0.029717
    137 H58        -8.0690   -2.7680    1.2590 hc        1 MOL      0.103939
    138 H59        -7.8920   -3.6970   -0.3330 hc        1 MOL      0.103939
    139 H60        -9.0430   -2.6430   -2.4610 ha        1 MOL      0.160228
    140 H61        -9.7440   -0.9070    1.5060 ha        1 MOL      0.160228
    141 H62       -11.0120   -1.7050   -3.2350 ha        1 MOL      0.149713
    142 H63       -11.5670    0.2600    0.6580 ha        1 MOL      0.149713
    143 H64       -13.2280    0.3770   -1.1520 ho        1 MOL      0.393890
    144 N13        -6.4210   -0.0750    1.3150 n         1 MOL     -0.196523
    145 C48        -6.2780    1.2450    1.8550 c3        1 MOL     -0.206845
    146 C49        -5.2500    2.2080    1.1150 c         1 MOL      0.387522
    147 O21        -5.3230    3.4170    1.2960 o         1 MOL     -0.509116
    148 C50        -5.9970    1.1590    3.3140 c3        1 MOL      0.237876
    149 C51        -6.9520    0.2620    4.1410 c3        1 MOL     -0.405610
    150 C52        -6.4950    0.1430    5.6010 c         1 MOL      0.774604
    151 O22        -6.2390    1.1200    6.2790 o         1 MOL     -0.742966
    152 O23        -6.3580   -1.0210    6.0930 o         1 MOL     -0.742966
    153 H65        -6.1370   -0.8350    1.9160 hn        1 MOL      0.202113
    154 H66        -7.2800    1.6610    1.7230 h1        1 MOL      0.103228
    155 H67        -6.1130    2.1780    3.6730 hc        1 MOL      0.003547
    156 H68        -4.9660    0.8400    3.5070 hc        1 MOL      0.003547
    157 H69        -7.0890   -0.6770    3.6070 hc        1 MOL      0.038412
    158 H70        -7.8870    0.8250    4.1020 hc        1 MOL      0.038412
    159 N14        -4.3040    1.6280    0.3750 n         1 MOL     -0.016866
    160 C53        -3.3290    2.3420   -0.5220 c3        1 MOL      0.019661
    161 C54        -3.8650    2.5930   -1.9590 c         1 MOL      0.409626
    162 O24        -3.7720    3.7010   -2.4960 o         1 MOL     -0.559846
    163 C55        -1.9550    1.6060   -0.6270 c3        1 MOL     -0.037359
    164 C56        -1.2430    1.5900    0.7700 c3        1 MOL     -0.025836
    165 C57        -0.0060    0.7120    0.5480 c         1 MOL      0.534558
    166 O25         1.0090    1.1710    0.0680 o         1 MOL     -0.648047
    167 O26        -0.0290   -0.5020    0.8440 o         1 MOL     -0.648047
    168 H71        -4.5340    0.6600    0.2150 hn        1 MOL     -0.105929
    169 H72        -3.1270    3.3230   -0.0820 h1        1 MOL      0.081649
    170 H73        -1.2070    2.1310   -1.2150 hc        1 MOL      0.065195
    171 H74        -2.0750    0.5890   -1.0030 hc        1 MOL      0.065195
    172 H75        -1.8610    1.1360    1.5450 hc        1 MOL     -0.005652
    173 H76        -0.9750    2.5950    1.0840 hc        1 MOL     -0.005652
    174 N15        -4.5410    1.6250   -2.5310 n         1 MOL      0.039322
    175 C58        -5.3820    1.6150   -3.7530 c3        1 MOL     -0.363571
    176 H77        -4.8800    2.1700   -4.5440 h1        1 MOL      0.119587
    177 H78        -5.5420    0.5870   -4.0760 h1        1 MOL      0.119587
    178 H79        -6.3440    2.0810   -3.5360 h1        1 MOL      0.119587
    179 H80        -4.5830    0.7560   -2.0210 hn        1 MOL      0.001422
    180 Ca1         2.7230   -0.3350    1.1460 Ca        1 MOL      1.749776
    181 O27         1.9810   -2.2890    2.7370 oh        1 MOL     -0.912973
    182 H81         1.3840   -2.5110    3.4520 ho        1 MOL      0.430083
    183 H82         2.5670   -3.0400    2.6690 ho        1 MOL      0.430083
@<TRIPOS>BOND
     1    1    2 1   
     2    1    4 1   
     3    1    5 1   
     4    1    6 1   
     5    2    3 2   
     6    2    7 1   
     7    7    8 1   
     8    7   15 1   
     9    8    9 1   
    10    8   11 1   
    11    8   16 1   
    12    9   10 2   
    13    9   19 1   
    14   11   12 1   
    15   11   17 1   
    16   11   18 1   
    17   12   13 1   
    18   12   14 1   
    19   19   20 1   
    20   19   27 1   
    21   20   21 1   
    22   20   23 1   
    23   20   28 1   
    24   21   22 2   
    25   21   38 1   
    26   23   24 1   
    27   23   25 1   
    28   23   29 1   
    29   24   26 1   
    30   24   30 1   
    31   24   31 1   
    32   25   32 1   
    33   25   33 1   
    34   25   34 1   
    35   26   35 1   
    36   26   36 1   
    37   26   37 1   
    38   38   39 1   
    39   38   46 1   
    40   39   40 1   
    41   39   42 1   
    42   39   47 1   
    43   40   41 2   
    44   40   50 1   
    45   42   43 1   
    46   42   48 1   
    47   42   49 1   
    48   43   44 1   
    49   43   45 1   
    50   50   51 1   
    51   50   54 1   
    52   51   52 1   
    53   51   55 1   
    54   51   56 1   
    55   52   53 2   
    56   52   57 1   
    57   57   58 1   
    58   57   65 1   
    59   58   59 1   
    60   58   61 1   
    61   58   66 1   
    62   59   60 2   
    63   59   69 1   
    64   61   62 1   
    65   61   67 1   
    66   61   68 1   
    67   62   63 1   
    68   62   64 1   
    69   69   70 1   
    70   69   73 1   
    71   70   71 1   
    72   70   74 1   
    73   70   75 1   
    74   71   72 2   
    75   71   76 1   
    76   76   77 1   
    77   76   85 1   
    78   77   78 1   
    79   77   80 1   
    80   77   86 1   
    81   78   79 2   
    82   78   93 1   
    83   80   81 1   
    84   80   87 1   
    85   80   88 1   
    86   81   82 1   
    87   81   89 1   
    88   81   90 1   
    89   82   83 1   
    90   82   84 2   
    91   83   91 1   
    92   83   92 1   
    93   93   94 1   
    94   93  100 1   
    95   94   95 1   
    96   94   97 1   
    97   94  101 1   
    98   95   96 2   
    99   95  109 1   
   100   97   98 1   
   101   97   99 1   
   102   97  102 1   
   103   98  103 1   
   104   98  104 1   
   105   98  105 1   
   106   99  106 1   
   107   99  107 1   
   108   99  108 1   
   109  109  110 1   
   110  109  117 1   
   111  110  111 1   
   112  110  113 1   
   113  110  118 1   
   114  111  112 2   
   115  111  123 1   
   116  113  114 1   
   117  113  119 1   
   118  113  120 1   
   119  114  115 1   
   120  114  116 2   
   121  115  121 1   
   122  115  122 1   
   123  123  124 1   
   124  123  135 1   
   125  124  125 1   
   126  124  127 1   
   127  124  136 1   
   128  125  126 2   
   129  125  144 1   
   130  127  128 1   
   131  127  137 1   
   132  127  138 1   
   133  128  129 ar  
   134  128  130 ar  
   135  129  131 ar  
   136  129  139 1   
   137  130  132 ar  
   138  130  140 1   
   139  131  133 ar  
   140  131  141 1   
   141  132  133 ar  
   142  132  142 1   
   143  133  134 1   
   144  134  143 1   
   145  144  145 1   
   146  144  153 1   
   147  145  146 1   
   148  145  148 1   
   149  145  154 1   
   150  146  147 2   
   151  146  159 1   
   152  148  149 1   
   153  148  155 1   
   154  148  156 1   
   155  149  150 1   
   156  149  157 1   
   157  149  158 1   
   158  150  151 1   
   159  150  152 1   
   160  159  160 1   
   161  159  168 1   
   162  160  161 1   
   163  160  163 1   
   164  160  169 1   
   165  161  162 2   
   166  161  174 1   
   167  163  164 1   
   168  163  170 1   
   169  163  171 1   
   170  164  165 1   
   171  164  172 1   
   172  164  173 1   
   173  165  166 1   
   174  165  167 1   
   175  174  175 1   
   176  174  179 1   
   177  175  176 1   
   178  175  177 1   
   179  175  178 1   
   180  181  182 1   
   181  181  183 1   
@<TRIPOS>SUBSTRUCTURE
     1 MOL         1 TEMP              0 ****  ****    0 ROOT
