@<TRIPOS>MOLECULE
MOL
  176   174     1     0     0
SMALL
resp


@<TRIPOS>ATOM
      1 C1         -0.4960    5.4790    5.7790 c3        1 MOL     -0.291189
      2 C2         -0.5550    4.9220    4.3620 c         1 MOL      0.708995
      3 O1          0.4670    5.2000    3.6940 o         1 MOL     -0.605899
      4 H1         -0.7120    4.6820    6.4900 hc        1 MOL      0.068161
      5 H2          0.5000    5.8780    5.9720 hc        1 MOL      0.068161
      6 H3         -1.2340    6.2730    5.8890 hc        1 MOL      0.068161
      7 N1         -1.5760    4.2140    3.9960 n         1 MOL     -0.511168
      8 C3         -1.6550    3.5950    2.6580 c3        1 MOL      0.096364
      9 C4         -2.5040    4.5130    1.7700 c         1 MOL      0.504508
     10 O2         -3.5520    4.9990    2.2320 o         1 MOL     -0.522394
     11 C5         -2.2850    2.1640    2.7380 c3        1 MOL     -0.281621
     12 C6         -2.0430    1.4520    1.4350 c         1 MOL      0.792696
     13 O3         -2.3720    0.2470    1.3690 o         1 MOL     -0.769609
     14 O4         -1.4130    1.9550    0.4650 o         1 MOL     -0.769609
     15 H4         -2.4010    4.2650    4.5700 hn        1 MOL      0.307739
     16 H5         -0.6640    3.4120    2.2360 h1        1 MOL      0.050379
     17 H6         -3.3530    2.2810    2.8880 hc        1 MOL      0.086366
     18 H7         -1.7350    1.6570    3.5450 hc        1 MOL      0.086366
     19 N2         -2.1540    4.7730    0.5040 n         1 MOL     -0.402052
     20 C7         -2.8320    5.6550   -0.3990 c3        1 MOL     -0.043122
     21 C8         -4.1380    5.0990   -0.9390 c         1 MOL      0.426512
     22 O5         -5.0210    5.8580   -1.4330 o         1 MOL     -0.524441
     23 C9         -1.8700    6.0540   -1.5820 c3        1 MOL     -0.103636
     24 C10        -1.7060    4.8460   -2.5870 c3        1 MOL      0.100889
     25 C11        -0.6350    5.3130   -3.5730 c3        1 MOL     -0.147612
     26 C12         0.8470    5.4450   -3.1230 c3        1 MOL     -0.271456
     27 N3          1.3510    4.1060   -2.7720 n4        1 MOL     -0.220991
     28 H8         -1.4260    4.2200    0.0660 hn        1 MOL      0.249773
     29 H9         -2.8950    6.6470    0.0410 h1        1 MOL      0.130583
     30 H10        -0.9000    6.3200   -1.1600 hc        1 MOL      0.062958
     31 H11        -2.2650    6.8700   -2.1980 hc        1 MOL      0.062958
     32 H12        -2.6350    4.7240   -3.1310 hc        1 MOL      0.039324
     33 H13        -1.4830    3.8710   -2.1540 hc        1 MOL      0.039324
     34 H14        -0.9900    6.2540   -4.0210 hc        1 MOL      0.072394
     35 H15        -0.6970    4.6800   -4.4590 hc        1 MOL      0.072394
     36 H16         0.8850    6.1490   -2.2990 hx        1 MOL      0.168251
     37 H17         1.4760    5.8420   -3.9050 hx        1 MOL      0.168251
     38 H18         2.3470    4.1270   -2.6320 hn        1 MOL      0.311325
     39 H19         0.9350    3.5700   -2.0160 hn        1 MOL      0.311325
     40 H20         1.2190    3.4670   -3.5450 hn        1 MOL      0.311325
     41 N4         -4.3640    3.7400   -0.9260 n         1 MOL     -0.170945
     42 C13        -5.4510    3.0730   -1.7260 c3        1 MOL     -0.018577
     43 C14        -6.4760    2.4840   -0.7530 c         1 MOL      0.509663
     44 O6         -7.6900    2.6280   -0.9720 o         1 MOL     -0.535866
     45 C15        -4.8680    2.0610   -2.7250 c3        1 MOL     -0.168872
     46 C16        -3.7630    1.2340   -2.1880 c         1 MOL      0.511200
     47 O7         -3.8120    0.7440   -1.0710 o         1 MOL     -0.662675
     48 O8         -2.8090    1.1060   -2.9640 o         1 MOL     -0.662675
     49 H21        -3.7220    3.1730   -0.3970 hn        1 MOL      0.101399
     50 H22        -6.0240    3.8450   -2.2460 h1        1 MOL      0.097038
     51 H23        -4.5220    2.7250   -3.5190 hc        1 MOL      0.073884
     52 H24        -5.6520    1.4640   -3.1850 hc        1 MOL      0.073884
     53 N5         -6.0030    1.7580    0.2480 n         1 MOL     -0.410552
     54 C17        -6.9280    0.9970    1.0890 c3        1 MOL     -0.027878
     55 C18        -7.2300   -0.3620    0.4610 c         1 MOL      0.518613
     56 O9         -8.3120   -0.8830    0.6370 o         1 MOL     -0.554668
     57 H25        -5.0160    1.5190    0.1960 hn        1 MOL      0.330876
     58 H26        -7.8970    1.4830    1.2440 h1        1 MOL      0.075103
     59 H27        -6.4390    0.7970    2.0450 h1        1 MOL      0.075103
     60 N6         -6.2050   -1.0000   -0.1460 n         1 MOL     -0.215019
     61 C19        -6.3280   -2.2530   -0.8580 c3        1 MOL     -0.073192
     62 C20        -5.9630   -3.5090    0.0190 c         1 MOL      0.435942
     63 O10        -5.8630   -4.6240   -0.4610 o         1 MOL     -0.475204
     64 C21        -5.5190   -2.2400   -2.1690 c3        1 MOL     -0.269059
     65 C22        -4.0220   -2.3290   -2.0890 c         1 MOL      0.656868
     66 N7         -3.4130   -2.5670   -3.2390 n         1 MOL     -0.528731
     67 O11        -3.3760   -2.1380   -1.0680 o         1 MOL     -0.585312
     68 H28        -5.2440   -0.6860   -0.0350 hn        1 MOL      0.201484
     69 H29        -7.3690   -2.4440   -1.1320 h1        1 MOL      0.150714
     70 H30        -5.8150   -1.3410   -2.6990 hc        1 MOL      0.104023
     71 H31        -5.9170   -3.0560   -2.7740 hc        1 MOL      0.104023
     72 H32        -4.0030   -2.8100   -4.0290 hn        1 MOL      0.268903
     73 H33        -2.4140   -2.5680   -3.3970 hn        1 MOL      0.268903
     74 N8         -5.6690   -3.3200    1.3570 n         1 MOL     -0.367261
     75 C23        -5.3050   -4.3730    2.3020 c3        1 MOL     -0.098483
     76 C24        -3.8850   -4.7370    2.6310 c         1 MOL      0.457904
     77 O12        -3.6790   -5.3820    3.6590 o         1 MOL     -0.546059
     78 H34        -5.5830   -2.3740    1.6860 hn        1 MOL      0.255860
     79 H35        -5.7620   -5.3050    1.9700 h1        1 MOL      0.112022
     80 H36        -5.7840   -4.1280    3.2550 h1        1 MOL      0.112022
     81 N9         -2.8840   -4.1720    1.9280 n         1 MOL     -0.159828
     82 C25        -1.4750   -4.3990    2.1560 c3        1 MOL      0.042958
     83 C26        -0.5230   -3.2690    1.6620 c         1 MOL      0.479597
     84 O13        -0.8760   -2.3700    0.9030 o         1 MOL     -0.577864
     85 C27        -1.0100   -5.6830    1.4980 c3        1 MOL     -0.137344
     86 C28        -1.0030   -5.7060   -0.0290 ca        1 MOL      0.010719
     87 C29         0.2430   -5.5150   -0.6770 ca        1 MOL     -0.102435
     88 C30        -2.1370   -5.9210   -0.7910 ca        1 MOL     -0.102435
     89 C31         0.3040   -5.5170   -2.1360 ca        1 MOL     -0.236125
     90 C32        -2.0330   -5.7810   -2.1980 ca        1 MOL     -0.236125
     91 C33        -0.8560   -5.4690   -2.9070 ca        1 MOL      0.281838
     92 O14        -0.8280   -5.3710   -4.2960 oh        1 MOL     -0.453185
     93 H37        -3.0990   -3.4300    1.2730 hn        1 MOL      0.178212
     94 H38        -1.3390   -4.4850    3.2420 h1        1 MOL      0.066033
     95 H39        -1.6580   -6.4660    1.9000 hc        1 MOL      0.065752
     96 H40        -0.0300   -5.8930    1.9290 hc        1 MOL      0.065752
     97 H41         1.1560   -5.4820   -0.1000 ha        1 MOL      0.137848
     98 H42        -3.1060   -6.0670   -0.3410 ha        1 MOL      0.137848
     99 H43         1.2440   -5.4570   -2.6780 ha        1 MOL      0.113734
    100 H44        -2.9220   -5.7220   -2.8030 ha        1 MOL      0.113734
    101 H45         0.0800   -5.1420   -4.5270 ho        1 MOL      0.332052
    102 N10         0.7360   -3.2390    2.1150 n         1 MOL     -0.451881
    103 C34         1.8760   -2.3580    1.7620 c3        1 MOL      0.014931
    104 C35         3.1660   -3.1520    1.4520 c         1 MOL      0.451434
    105 O15         3.2360   -4.3200    1.8340 o         1 MOL     -0.538417
    106 C36         2.0460   -1.2180    2.8110 c3        1 MOL      0.063900
    107 C37         2.3810   -1.7510    4.2480 c3        1 MOL      0.086677
    108 C38         0.8180   -0.3190    2.7170 c3        1 MOL     -0.141699
    109 C39         2.4170   -0.5920    5.2590 c3        1 MOL     -0.215693
    110 H46         0.9230   -3.9300    2.8330 hn        1 MOL      0.307055
    111 H47         1.5020   -1.9420    0.8340 h1        1 MOL      0.105863
    112 H48         2.8980   -0.6510    2.4200 hc        1 MOL     -0.050568
    113 H49         3.3470   -2.2460    4.2320 hc        1 MOL     -0.003808
    114 H50         1.6730   -2.5310    4.5290 hc        1 MOL     -0.003808
    115 H51        -0.0500   -0.8870    3.0690 hc        1 MOL      0.057395
    116 H52         1.0250    0.5580    3.3440 hc        1 MOL      0.057395
    117 H53         0.5210   -0.0320    1.7110 hc        1 MOL      0.057395
    118 H54         1.4780   -0.0500    5.3160 hc        1 MOL      0.058453
    119 H55         2.7160   -0.9190    6.2590 hc        1 MOL      0.058453
    120 H56         3.2720   -0.0150    4.8820 hc        1 MOL      0.058453
    121 N11         4.0730   -2.4420    0.8350 n         1 MOL     -0.293373
    122 C40         5.3810   -2.8510    0.2720 c3        1 MOL      0.164010
    123 C41         6.4900   -1.8730    0.5230 c         1 MOL      0.460320
    124 O16         6.2120   -0.8090    1.0540 o         1 MOL     -0.453715
    125 C42         5.2280   -3.0040   -1.2000 c3        1 MOL      0.082352
    126 O17         4.8840   -1.8250   -1.9300 oh        1 MOL     -0.517704
    127 H57         3.8080   -1.4920    0.6100 hn        1 MOL      0.170679
    128 H58         5.7540   -3.8030    0.6600 h1        1 MOL      0.065685
    129 H59         4.5140   -3.8200   -1.3430 h1        1 MOL      0.007175
    130 H60         6.1460   -3.4570   -1.5890 h1        1 MOL      0.007175
    131 H61         4.4960   -2.0720   -2.7700 ho        1 MOL      0.405960
    132 N12         7.7320   -2.2260    0.2590 n         1 MOL     -0.451862
    133 C43         8.9020   -1.3950    0.3240 c3        1 MOL      0.212993
    134 C44         8.7090    0.0070   -0.3390 c         1 MOL      0.470035
    135 O18         8.8840    1.0120    0.2640 o         1 MOL     -0.471341
    136 C45        10.1110   -2.1610   -0.1220 c3        1 MOL     -0.279553
    137 H62         7.9760   -3.1560   -0.0660 hn        1 MOL      0.273537
    138 H63         9.1490   -1.0730    1.3390 h1        1 MOL      0.038208
    139 H64        10.2160   -3.0630    0.4620 hc        1 MOL      0.083460
    140 H65        10.0030   -2.3590   -1.1920 hc        1 MOL      0.083460
    141 H66        11.0220   -1.5840    0.0570 hc        1 MOL      0.083460
    142 N13         8.1960   -0.1030   -1.5770 n         1 MOL     -0.454307
    143 C46         7.8720    1.1190   -2.4000 c3        1 MOL      0.097190
    144 C47         6.7460    2.0330   -1.8180 c         1 MOL      0.338580
    145 O19         6.7810    3.2540   -1.9320 o         1 MOL     -0.492021
    146 C48         7.6210    0.8060   -3.8950 c3        1 MOL     -0.271485
    147 H67         7.9020   -0.9860   -1.9770 hn        1 MOL      0.291091
    148 H68         8.7530    1.7630   -2.4170 h1        1 MOL      0.107272
    149 H69         7.7820    1.7460   -4.4210 hc        1 MOL      0.082076
    150 H70         8.3260    0.0780   -4.2850 hc        1 MOL      0.082076
    151 H71         6.6220    0.4050   -4.1010 hc        1 MOL      0.082076
    152 N14         5.7840    1.4550   -1.0700 n         1 MOL      0.030252
    153 C49         4.7220    2.2410   -0.4850 c3        1 MOL     -0.183647
    154 C50         5.0520    2.8760    0.8570 c         1 MOL      0.540671
    155 O20         4.6620    3.9750    1.1640 o         1 MOL     -0.532157
    156 C51         3.4520    1.4350   -0.3890 c3        1 MOL     -0.212823
    157 C52         2.7920    1.0980   -1.7790 c3        1 MOL      0.074312
    158 C53         1.3140    0.6070   -1.6350 c         1 MOL      0.747363
    159 O21         1.1610   -0.4680   -1.0530 o         1 MOL     -0.757857
    160 O22         0.3860    1.2400   -2.1360 o         1 MOL     -0.757857
    161 H72         5.7200    0.4550   -0.9620 hn        1 MOL      0.058277
    162 H73         4.5600    3.1390   -1.0930 h1        1 MOL      0.084479
    163 H74         2.7090    2.0420    0.1280 hc        1 MOL      0.088515
    164 H75         3.6840    0.5270    0.1680 hc        1 MOL      0.088515
    165 H76         3.3830    0.3010   -2.2260 hc        1 MOL     -0.068700
    166 H77         2.7120    1.8640   -2.5510 hc        1 MOL     -0.068700
    167 N15         5.9580    2.2210    1.5960 n         1 MOL     -0.187384
    168 C54         6.6770    2.6750    2.7130 c3        1 MOL     -0.148247
    169 H78         6.4580    2.0370    3.5690 h1        1 MOL      0.077734
    170 H79         7.7450    2.6380    2.4980 h1        1 MOL      0.077734
    171 H80         6.3870    3.7000    2.9410 h1        1 MOL      0.077734
    172 H81         6.3450    1.3770    1.1790 hn        1 MOL      0.192046
    173 Ca1        -1.3570   -0.3520   -0.8380 Ca        1 MOL      1.793254
    174 O23        -0.7630   -1.6440   -3.0810 oh        1 MOL     -0.929871
    175 H82         0.1430   -1.9300   -3.0740 ho        1 MOL      0.447748
    176 H83        -1.0260   -1.6660   -3.9960 ho        1 MOL      0.447748
@<TRIPOS>BOND
     1    1    2 1   
     2    1    4 1   
     3    1    5 1   
     4    1    6 1   
     5    2    3 2   
     6    2    7 1   
     7    7    8 1   
     8    7   15 1   
     9    8    9 1   
    10    8   11 1   
    11    8   16 1   
    12    9   10 2   
    13    9   19 1   
    14   11   12 1   
    15   11   17 1   
    16   11   18 1   
    17   12   13 1   
    18   12   14 1   
    19   19   20 1   
    20   19   28 1   
    21   20   21 1   
    22   20   23 1   
    23   20   29 1   
    24   21   22 2   
    25   21   41 1   
    26   23   24 1   
    27   23   30 1   
    28   23   31 1   
    29   24   25 1   
    30   24   32 1   
    31   24   33 1   
    32   25   26 1   
    33   25   34 1   
    34   25   35 1   
    35   26   27 1   
    36   26   36 1   
    37   26   37 1   
    38   27   38 1   
    39   27   39 1   
    40   27   40 1   
    41   41   42 1   
    42   41   49 1   
    43   42   43 1   
    44   42   45 1   
    45   42   50 1   
    46   43   44 2   
    47   43   53 1   
    48   45   46 1   
    49   45   51 1   
    50   45   52 1   
    51   46   47 1   
    52   46   48 1   
    53   53   54 1   
    54   53   57 1   
    55   54   55 1   
    56   54   58 1   
    57   54   59 1   
    58   55   56 2   
    59   55   60 1   
    60   60   61 1   
    61   60   68 1   
    62   61   62 1   
    63   61   64 1   
    64   61   69 1   
    65   62   63 2   
    66   62   74 1   
    67   64   65 1   
    68   64   70 1   
    69   64   71 1   
    70   65   66 1   
    71   65   67 2   
    72   66   72 1   
    73   66   73 1   
    74   74   75 1   
    75   74   78 1   
    76   75   76 1   
    77   75   79 1   
    78   75   80 1   
    79   76   77 2   
    80   76   81 1   
    81   81   82 1   
    82   81   93 1   
    83   82   83 1   
    84   82   85 1   
    85   82   94 1   
    86   83   84 2   
    87   83  102 1   
    88   85   86 1   
    89   85   95 1   
    90   85   96 1   
    91   86   87 ar  
    92   86   88 ar  
    93   87   89 ar  
    94   87   97 1   
    95   88   90 ar  
    96   88   98 1   
    97   89   91 ar  
    98   89   99 1   
    99   90   91 ar  
   100   90  100 1   
   101   91   92 1   
   102   92  101 1   
   103  102  103 1   
   104  102  110 1   
   105  103  104 1   
   106  103  106 1   
   107  103  111 1   
   108  104  105 2   
   109  104  121 1   
   110  106  107 1   
   111  106  108 1   
   112  106  112 1   
   113  107  109 1   
   114  107  113 1   
   115  107  114 1   
   116  108  115 1   
   117  108  116 1   
   118  108  117 1   
   119  109  118 1   
   120  109  119 1   
   121  109  120 1   
   122  121  122 1   
   123  121  127 1   
   124  122  123 1   
   125  122  125 1   
   126  122  128 1   
   127  123  124 2   
   128  123  132 1   
   129  125  126 1   
   130  125  129 1   
   131  125  130 1   
   132  126  131 1   
   133  132  133 1   
   134  132  137 1   
   135  133  134 1   
   136  133  136 1   
   137  133  138 1   
   138  134  135 2   
   139  134  142 1   
   140  136  139 1   
   141  136  140 1   
   142  136  141 1   
   143  142  143 1   
   144  142  147 1   
   145  143  144 1   
   146  143  146 1   
   147  143  148 1   
   148  144  145 2   
   149  144  152 1   
   150  146  149 1   
   151  146  150 1   
   152  146  151 1   
   153  152  153 1   
   154  152  161 1   
   155  153  154 1   
   156  153  156 1   
   157  153  162 1   
   158  154  155 2   
   159  154  167 1   
   160  156  157 1   
   161  156  163 1   
   162  156  164 1   
   163  157  158 1   
   164  157  165 1   
   165  157  166 1   
   166  158  159 1   
   167  158  160 1   
   168  167  168 1   
   169  167  172 1   
   170  168  169 1   
   171  168  170 1   
   172  168  171 1   
   173  174  175 1   
   174  174  176 1   
@<TRIPOS>SUBSTRUCTURE
     1 MOL         1 TEMP              0 ****  ****    0 ROOT
