@<TRIPOS>MOLECULE
MOL
  182   178     1     0     0
SMALL
resp


@<TRIPOS>ATOM
      1 C1          2.2400    1.8800    6.0800 c3        1 MOL     -0.214436
      2 C2          1.6600    1.9130    4.6730 c         1 MOL      0.811831
      3 O1          2.4430    1.8630    3.7390 o         1 MOL     -0.630450
      4 H1          2.1140    2.8560    6.5480 hc        1 MOL      0.050388
      5 H2          1.7190    1.1250    6.6710 hc        1 MOL      0.050388
      6 H3          3.3010    1.6350    6.0300 hc        1 MOL      0.050388
      7 N1          0.3280    1.8770    4.4770 n         1 MOL     -0.681048
      8 C3         -0.2790    1.8610    3.1510 c3        1 MOL     -0.049821
      9 C4         -0.3650    3.3030    2.5760 c         1 MOL      0.544162
     10 O2         -1.1470    4.1740    2.9760 o         1 MOL     -0.520773
     11 C5         -1.7330    1.3010    3.3420 c3        1 MOL     -0.213543
     12 C6         -2.5500    1.0470    2.1350 c         1 MOL      0.657775
     13 O3         -3.7840    0.7430    2.3220 o         1 MOL     -0.670919
     14 O4         -2.0630    1.1770    0.9550 o         1 MOL     -0.670919
     15 H4         -0.2930    1.9310    5.2750 hn        1 MOL      0.358242
     16 H5          0.2530    1.1840    2.4720 h1        1 MOL      0.099224
     17 H6         -2.2350    1.8860    4.1010 hc        1 MOL      0.084282
     18 H7         -1.6210    0.3220    3.8070 hc        1 MOL      0.084282
     19 N2          0.3070    3.4350    1.4090 n         1 MOL      0.012504
     20 C7          0.8340    4.6740    0.7710 c3        1 MOL     -0.503611
     21 C8         -0.2350    5.4190    0.0390 c         1 MOL      0.617218
     22 O5         -0.2570    6.6970    0.0440 o         1 MOL     -0.584351
     23 C9          1.9880    4.3130   -0.0930 c3        1 MOL      0.146957
     24 C10         2.8470    5.5250   -0.5170 c3        1 MOL     -0.135376
     25 C11         4.0770    5.0970   -1.3400 c3        1 MOL     -0.086262
     26 C12         5.0200    6.2700   -1.8420 c3        1 MOL      0.015982
     27 N3          4.6840    6.7690   -3.1600 n4        1 MOL     -0.506473
     28 H8          0.5610    2.5560    0.9840 hn        1 MOL      0.003588
     29 H9          1.1630    5.3790    1.5300 h1        1 MOL      0.196250
     30 H10         1.6590    3.8280   -1.0150 hc        1 MOL      0.091800
     31 H11         2.6120    3.7250    0.5770 hc        1 MOL      0.091800
     32 H12         3.1480    6.0020    0.4250 hc        1 MOL      0.056609
     33 H13         2.3220    6.2190   -1.1700 hc        1 MOL      0.056609
     34 H14         3.7640    4.5670   -2.2430 hc        1 MOL      0.049175
     35 H15         4.5730    4.4370   -0.6290 hc        1 MOL      0.049175
     36 H16         6.0430    5.8880   -1.8680 hx        1 MOL      0.118740
     37 H17         5.1500    7.0120   -1.0510 hx        1 MOL      0.118740
     38 H18         4.1900    7.6510   -3.1400 hn        1 MOL      0.369738
     39 H19         5.5110    6.9590   -3.7160 hn        1 MOL      0.369738
     40 H20         4.0470    6.1760   -3.6670 hn        1 MOL      0.369738
     41 N4         -1.2310    4.7740   -0.6460 n         1 MOL     -0.387944
     42 C13        -2.3800    5.4590   -1.1010 c3        1 MOL      0.076220
     43 C14        -3.6510    5.0870   -0.2680 c         1 MOL      0.408333
     44 O6         -4.6960    5.7860   -0.3350 o         1 MOL     -0.569931
     45 C15        -2.5400    4.9630   -2.5850 c3        1 MOL     -0.375321
     46 C16        -2.3660    3.4920   -3.0520 c         1 MOL      0.736031
     47 O7         -2.2570    2.6240   -2.1120 o         1 MOL     -0.680147
     48 O8         -2.3550    3.1910   -4.2900 o         1 MOL     -0.680147
     49 H21        -1.1660    3.7670   -0.6250 hn        1 MOL      0.221781
     50 H22        -2.3170    6.5520   -1.0700 h1        1 MOL      0.133845
     51 H23        -1.8840    5.5810   -3.1890 hc        1 MOL      0.100400
     52 H24        -3.4880    5.2640   -3.0370 hc        1 MOL      0.100400
     53 N5         -3.5060    4.2090    0.6940 n         1 MOL      0.020498
     54 C17        -4.5910    3.7640    1.5990 c3        1 MOL     -0.269305
     55 C18        -5.5790    2.7480    1.0600 c         1 MOL      0.590584
     56 O9         -6.5970    2.5750    1.6880 o         1 MOL     -0.554942
     57 H25        -2.7000    3.6050    0.7590 hn        1 MOL     -0.033380
     58 H26        -4.9910    4.7160    1.9600 h1        1 MOL      0.144723
     59 H27        -4.1280    3.3690    2.4970 h1        1 MOL      0.144723
     60 N6         -5.2770    2.0030   -0.0420 n         1 MOL     -0.341643
     61 C19        -6.2430    1.2210   -0.7850 c3        1 MOL      0.045075
     62 C20        -6.6510   -0.1550   -0.1090 c         1 MOL      0.194665
     63 O10        -7.4840   -0.9170   -0.5840 o         1 MOL     -0.437768
     64 C21        -5.7030    1.0640   -2.2800 c3        1 MOL     -0.341577
     65 C22        -4.8110   -0.1210   -2.3630 c         1 MOL      0.522199
     66 N7         -5.0690   -1.0380   -3.2260 n         1 MOL     -0.512838
     67 O11        -3.8860   -0.2740   -1.6400 o         1 MOL     -0.623029
     68 H28        -4.4350    2.1050   -0.5890 hn        1 MOL      0.238516
     69 H29        -7.1200    1.8740   -0.8500 h1        1 MOL      0.113284
     70 H30        -5.1270    1.9490   -2.5430 hc        1 MOL      0.133925
     71 H31        -6.5800    0.9200   -2.9080 hc        1 MOL      0.133925
     72 H32        -5.7270   -0.9140   -3.9920 hn        1 MOL      0.298046
     73 H33        -4.5540   -1.8970   -3.2650 hn        1 MOL      0.298046
     74 N8         -5.9770   -0.4440    1.0220 n         1 MOL      0.112943
     75 C23        -6.3140   -1.5130    1.9330 c3        1 MOL     -0.376862
     76 C24        -5.2200   -2.6240    1.8340 c         1 MOL      0.655296
     77 O12        -5.4190   -3.7770    2.3120 o         1 MOL     -0.562141
     78 H34        -5.1650    0.0720    1.3100 hn        1 MOL      0.209822
     79 H35        -7.3440   -1.7790    1.7110 h1        1 MOL      0.147531
     80 H36        -6.1250   -1.0340    2.8860 h1        1 MOL      0.147531
     81 N9         -4.0660   -2.3930    1.1360 n         1 MOL     -0.533716
     82 C25        -3.0340   -3.4700    0.8940 c3        1 MOL      0.215839
     83 C26        -1.6820   -2.7440    0.8950 c         1 MOL      0.503965
     84 O13        -1.5730   -1.6670    0.2680 o         1 MOL     -0.541859
     85 C27        -3.1810   -4.1790   -0.4610 c3        1 MOL      0.012322
     86 C28        -4.6530   -4.6810   -0.7210 ca        1 MOL     -0.137957
     87 C29        -4.9570   -6.0280   -0.5150 ca        1 MOL     -0.038160
     88 C30        -5.6050   -3.7650   -1.1180 ca        1 MOL     -0.038160
     89 C31        -6.2460   -6.4740   -0.7290 ca        1 MOL     -0.371906
     90 C32        -6.9630   -4.1770   -1.2830 ca        1 MOL     -0.371906
     91 C33        -7.2620   -5.5420   -1.0350 ca        1 MOL      0.495712
     92 O14        -8.4490   -6.0240   -1.3410 oh        1 MOL     -0.490070
     93 H37        -3.8700   -1.4680    0.8060 hn        1 MOL      0.283020
     94 H38        -3.0540   -4.1900    1.7120 h1        1 MOL      0.042863
     95 H39        -2.6060   -5.0910   -0.5230 hc        1 MOL      0.013437
     96 H40        -2.9340   -3.4700   -1.2650 hc        1 MOL      0.013437
     97 H41        -4.1440   -6.7380   -0.4420 ha        1 MOL      0.101386
     98 H42        -5.3780   -2.7110   -1.1480 ha        1 MOL      0.101386
     99 H43        -6.4890   -7.5280   -0.7280 ha        1 MOL      0.158126
    100 H44        -7.7750   -3.5380   -1.6090 ha        1 MOL      0.158126
    101 H45        -8.4120   -6.9630   -1.1310 ho        1 MOL      0.338713
    102 N10        -0.6890   -3.3620    1.5480 n         1 MOL     -0.637326
    103 C34         0.6970   -2.8850    1.4410 c3        1 MOL      0.212161
    104 C35         1.6180   -3.7030    0.4680 c         1 MOL      0.430816
    105 O15         1.7360   -4.9240    0.6550 o         1 MOL     -0.550520
    106 C36         1.3630   -2.8490    2.8270 c3        1 MOL      0.436586
    107 C37         0.4740   -2.0880    3.8680 c3        1 MOL      0.076726
    108 C38         2.7960   -2.2840    2.8560 c3        1 MOL     -0.606543
    109 C39         0.4740   -2.6870    5.3040 c3        1 MOL     -0.426393
    110 H46        -0.8210   -4.2730    1.9730 hn        1 MOL      0.334852
    111 H47         0.6570   -1.8900    0.9940 h1        1 MOL     -0.073702
    112 H48         1.3230   -3.9010    3.1110 hc        1 MOL     -0.091833
    113 H49        -0.5620   -2.1590    3.5310 hc        1 MOL      0.023958
    114 H50         0.8490   -1.0720    3.8760 hc        1 MOL      0.023958
    115 H51         3.3520   -2.6130    3.7250 hc        1 MOL      0.129861
    116 H52         3.2790   -2.7840    2.0170 hc        1 MOL      0.129861
    117 H53         2.7160   -1.2020    2.7320 hc        1 MOL      0.129861
    118 H54         0.2450   -3.7610    5.2970 hc        1 MOL      0.100322
    119 H55         1.4260   -2.4460    5.7770 hc        1 MOL      0.100322
    120 H56        -0.4270   -2.3180    5.7870 hc        1 MOL      0.100322
    121 N11         2.2200   -3.0650   -0.5620 n         1 MOL     -0.260611
    122 C40         3.2620   -3.7510   -1.4510 c3        1 MOL      0.011851
    123 C41         4.7100   -3.8130   -0.8390 c         1 MOL      0.524136
    124 O16         5.0030   -3.0700    0.0990 o         1 MOL     -0.465738
    125 C42         3.3670   -2.9020   -2.7390 c3        1 MOL      0.043035
    126 O17         2.1280   -2.4560   -3.2900 oh        1 MOL     -0.487916
    127 H57         1.9440   -2.1220   -0.7640 hn        1 MOL      0.271903
    128 H58         2.9900   -4.8000   -1.6060 h1        1 MOL      0.065791
    129 H59         3.8640   -3.4350   -3.5510 h1        1 MOL      0.059307
    130 H60         3.8820   -1.9850   -2.4490 h1        1 MOL      0.059307
    131 H61         1.7750   -1.8030   -2.6630 ho        1 MOL      0.235157
    132 N12         5.5940   -4.4800   -1.4700 n         1 MOL     -0.552576
    133 C43         7.0080   -4.3960   -1.0200 c3        1 MOL      0.367331
    134 C44         7.7240   -3.0050   -1.0250 c         1 MOL      0.356344
    135 O18         8.2200   -2.5990    0.0390 o         1 MOL     -0.488003
    136 C45         7.8860   -5.4150   -1.7660 c3        1 MOL     -0.568354
    137 H62         5.3110   -5.0720   -2.2480 hn        1 MOL      0.315915
    138 H63         7.0240   -4.7420    0.0150 h1        1 MOL      0.052817
    139 H64         7.7930   -5.2410   -2.8420 hc        1 MOL      0.157990
    140 H65         8.8830   -5.2850   -1.3480 hc        1 MOL      0.157990
    141 H66         7.4880   -6.3860   -1.4880 hc        1 MOL      0.157990
    142 N13         7.4750   -2.2440   -2.0900 n         1 MOL     -0.325927
    143 C46         7.8040   -0.8090   -2.1410 c3        1 MOL      0.249072
    144 C47         7.2300    0.0700   -1.0030 c         1 MOL      0.190549
    145 O19         7.7400    1.1710   -0.7080 o         1 MOL     -0.496767
    146 C48         7.4240   -0.2740   -3.4730 c3        1 MOL     -0.440116
    147 H67         7.2240   -2.6600   -2.9830 hn        1 MOL      0.228439
    148 H68         8.8850   -0.8640   -2.0940 h1        1 MOL      0.064932
    149 H69         7.7130    0.7750   -3.4300 hc        1 MOL      0.122622
    150 H70         8.0330   -0.7940   -4.2160 hc        1 MOL      0.122622
    151 H71         6.3470   -0.3610   -3.6280 hc        1 MOL      0.122622
    152 N14         6.0790   -0.3470   -0.4240 n         1 MOL      0.243194
    153 C49         5.3420    0.4850    0.5560 c3        1 MOL     -0.155839
    154 C50         5.9630    0.2910    1.9820 c         1 MOL      0.424014
    155 O20         5.9630    1.2500    2.7890 o         1 MOL     -0.518108
    156 C51         3.7940    0.2570    0.5240 c3        1 MOL      0.077886
    157 C52         3.1150    0.6870   -0.7540 c3        1 MOL     -0.068434
    158 C53         1.6970    0.4160   -0.7200 c         1 MOL      0.628921
    159 O21         0.8900    1.0760    0.0410 o         1 MOL     -0.625426
    160 O22         1.3230   -0.5670   -1.4070 o         1 MOL     -0.625426
    161 H72         5.7250   -1.2640   -0.6660 hn        1 MOL     -0.149799
    162 H73         5.4370    1.5210    0.2440 h1        1 MOL      0.079193
    163 H74         3.3130    0.6130    1.4390 hc        1 MOL      0.068216
    164 H75         3.6970   -0.8100    0.6640 hc        1 MOL      0.068216
    165 H76         3.7110    0.2600   -1.5630 hc        1 MOL     -0.033271
    166 H77         3.2200    1.7540   -0.9570 hc        1 MOL     -0.033271
    167 N15         6.5560   -0.8850    2.2300 n         1 MOL     -0.107532
    168 C54         7.3760   -1.1570    3.4310 c3        1 MOL     -0.277037
    169 H78         7.2970   -0.3180    4.1220 h1        1 MOL      0.115903
    170 H79         7.0180   -2.0650    3.9180 h1        1 MOL      0.115903
    171 H80         8.4180   -1.2880    3.1380 h1        1 MOL      0.115903
    172 H81         6.4750   -1.5800    1.5080 hn        1 MOL      0.165247
    173 Ca1        -1.2650    0.3280   -1.4350 Ca        1 MOL      1.774081
    174 O23        -1.9810    0.7250   -4.2620 oh        1 MOL     -0.853500
    175 H82        -2.6620    0.4500   -4.8700 ho        1 MOL      0.404942
    176 H83        -2.0590    1.6770   -4.2170 ho        1 MOL      0.404942
    177 O24         0.3310    1.7180   -3.1830 oh        1 MOL     -0.853500
    178 H84         1.0930    2.2180   -3.4720 ho        1 MOL      0.404942
    179 H85        -0.0770    1.4140   -3.9970 ho        1 MOL      0.404942
    180 O25        -0.9870   -2.1180   -2.9190 oh        1 MOL     -0.853500
    181 H86        -1.0990   -2.1720   -3.8620 ho        1 MOL      0.404942
    182 H87        -0.5860   -2.9500   -2.6760 ho        1 MOL      0.404942
@<TRIPOS>BOND
     1    1    2 1   
     2    1    4 1   
     3    1    5 1   
     4    1    6 1   
     5    2    3 2   
     6    2    7 1   
     7    7    8 1   
     8    7   15 1   
     9    8    9 1   
    10    8   11 1   
    11    8   16 1   
    12    9   10 2   
    13    9   19 1   
    14   11   12 1   
    15   11   17 1   
    16   11   18 1   
    17   12   13 1   
    18   12   14 1   
    19   19   20 1   
    20   19   28 1   
    21   20   21 1   
    22   20   23 1   
    23   20   29 1   
    24   21   22 2   
    25   21   41 1   
    26   23   24 1   
    27   23   30 1   
    28   23   31 1   
    29   24   25 1   
    30   24   32 1   
    31   24   33 1   
    32   25   26 1   
    33   25   34 1   
    34   25   35 1   
    35   26   27 1   
    36   26   36 1   
    37   26   37 1   
    38   27   38 1   
    39   27   39 1   
    40   27   40 1   
    41   41   42 1   
    42   41   49 1   
    43   42   43 1   
    44   42   45 1   
    45   42   50 1   
    46   43   44 2   
    47   43   53 1   
    48   45   46 1   
    49   45   51 1   
    50   45   52 1   
    51   46   47 1   
    52   46   48 1   
    53   53   54 1   
    54   53   57 1   
    55   54   55 1   
    56   54   58 1   
    57   54   59 1   
    58   55   56 2   
    59   55   60 1   
    60   60   61 1   
    61   60   68 1   
    62   61   62 1   
    63   61   64 1   
    64   61   69 1   
    65   62   63 2   
    66   62   74 1   
    67   64   65 1   
    68   64   70 1   
    69   64   71 1   
    70   65   66 1   
    71   65   67 2   
    72   66   72 1   
    73   66   73 1   
    74   74   75 1   
    75   74   78 1   
    76   75   76 1   
    77   75   79 1   
    78   75   80 1   
    79   76   77 2   
    80   76   81 1   
    81   81   82 1   
    82   81   93 1   
    83   82   83 1   
    84   82   85 1   
    85   82   94 1   
    86   83   84 2   
    87   83  102 1   
    88   85   86 1   
    89   85   95 1   
    90   85   96 1   
    91   86   87 ar  
    92   86   88 ar  
    93   87   89 ar  
    94   87   97 1   
    95   88   90 ar  
    96   88   98 1   
    97   89   91 ar  
    98   89   99 1   
    99   90   91 ar  
   100   90  100 1   
   101   91   92 1   
   102   92  101 1   
   103  102  103 1   
   104  102  110 1   
   105  103  104 1   
   106  103  106 1   
   107  103  111 1   
   108  104  105 2   
   109  104  121 1   
   110  106  107 1   
   111  106  108 1   
   112  106  112 1   
   113  107  109 1   
   114  107  113 1   
   115  107  114 1   
   116  108  115 1   
   117  108  116 1   
   118  108  117 1   
   119  109  118 1   
   120  109  119 1   
   121  109  120 1   
   122  121  122 1   
   123  121  127 1   
   124  122  123 1   
   125  122  125 1   
   126  122  128 1   
   127  123  124 2   
   128  123  132 1   
   129  125  126 1   
   130  125  129 1   
   131  125  130 1   
   132  126  131 1   
   133  132  133 1   
   134  132  137 1   
   135  133  134 1   
   136  133  136 1   
   137  133  138 1   
   138  134  135 2   
   139  134  142 1   
   140  136  139 1   
   141  136  140 1   
   142  136  141 1   
   143  142  143 1   
   144  142  147 1   
   145  143  144 1   
   146  143  146 1   
   147  143  148 1   
   148  144  145 2   
   149  144  152 1   
   150  146  149 1   
   151  146  150 1   
   152  146  151 1   
   153  152  153 1   
   154  152  161 1   
   155  153  154 1   
   156  153  156 1   
   157  153  162 1   
   158  154  155 2   
   159  154  167 1   
   160  156  157 1   
   161  156  163 1   
   162  156  164 1   
   163  157  158 1   
   164  157  165 1   
   165  157  166 1   
   166  158  159 1   
   167  158  160 1   
   168  167  168 1   
   169  167  172 1   
   170  168  169 1   
   171  168  170 1   
   172  168  171 1   
   173  174  175 1   
   174  174  176 1   
   175  177  178 1   
   176  177  179 1   
   177  180  181 1   
   178  180  182 1   
@<TRIPOS>SUBSTRUCTURE
     1 MOL         1 TEMP              0 ****  ****    0 ROOT
