@<TRIPOS>MOLECULE
MOL
  186   183     1     0     0
SMALL
resp


@<TRIPOS>ATOM
      1 C1         -0.8580    3.7220    5.1670 c3        1 MOL     -0.243485
      2 C2         -0.9310    3.1830    3.8040 c         1 MOL      0.692829
      3 O1         -0.0460    3.3990    2.9940 o         1 MOL     -0.591283
      4 H1         -1.3640    4.6860    5.2030 hc        1 MOL      0.060443
      5 H2         -1.3430    3.0310    5.8570 hc        1 MOL      0.060443
      6 H3          0.1860    3.8490    5.4530 hc        1 MOL      0.060443
      7 N1         -1.9480    2.2800    3.5660 n         1 MOL     -0.523951
      8 C3         -2.2780    1.6370    2.2620 c3        1 MOL      0.217043
      9 C4         -2.8250    2.7400    1.3230 c         1 MOL      0.175788
     10 O2         -4.0320    3.0090    1.3110 o         1 MOL     -0.398640
     11 C5         -3.3220    0.4730    2.5720 c3        1 MOL     -0.403323
     12 C6         -3.9810   -0.0020    1.3180 c         1 MOL      0.782881
     13 O3         -5.1400   -0.5200    1.4930 o         1 MOL     -0.651056
     14 O4         -3.3070    0.1270    0.2330 o         1 MOL     -0.651056
     15 H4         -2.5320    1.9430    4.3070 hn        1 MOL      0.297257
     16 H5         -1.4020    1.1950    1.7910 h1        1 MOL     -0.006678
     17 H6         -4.1410    0.7750    3.2290 hc        1 MOL      0.102852
     18 H7         -2.8450   -0.4040    3.0060 hc        1 MOL      0.102852
     19 N2         -1.9120    3.5600    0.7240 n         1 MOL     -0.033266
     20 C7         -2.2320    4.8360   -0.0170 c3        1 MOL     -0.231288
     21 C8         -3.2330    4.8210   -1.1500 c         1 MOL      0.451201
     22 O5         -3.9650    5.7980   -1.3360 o         1 MOL     -0.573928
     23 C9         -0.9230    5.6060   -0.3970 c3        1 MOL     -0.115845
     24 C10        -0.0390    5.9610    0.7470 c3        1 MOL      0.174381
     25 C11        -0.6660    6.8250    1.8670 c3        1 MOL     -0.293034
     26 C12        -0.9520    8.3070    1.3800 c3        1 MOL      0.253512
     27 N3         -1.7330    9.0100    2.4060 n4        1 MOL     -0.406764
     28 H8         -0.9540    3.2390    0.6900 hn        1 MOL      0.285371
     29 H9         -2.7300    5.5630    0.6300 h1        1 MOL      0.103765
     30 H10        -1.1060    6.6130   -0.7620 hc        1 MOL      0.048205
     31 H11        -0.2950    5.1500   -1.1740 hc        1 MOL      0.048205
     32 H12         0.8370    6.4350    0.3240 hc        1 MOL     -0.004885
     33 H13         0.2650    5.0010    1.1680 hc        1 MOL     -0.004885
     34 H14         0.0780    6.8460    2.6590 hc        1 MOL      0.075065
     35 H15        -1.5540    6.2890    2.2190 hc        1 MOL      0.075065
     36 H16        -1.3410    8.4300    0.3700 hx        1 MOL      0.033228
     37 H17        -0.0070    8.8440    1.3730 hx        1 MOL      0.033228
     38 H18        -2.6240    8.5470    2.5470 hn        1 MOL      0.332904
     39 H19        -1.2350    9.0000    3.2850 hn        1 MOL      0.332904
     40 H20        -1.8570    9.9770    2.1720 hn        1 MOL      0.332904
     41 N4         -3.4060    3.6410   -1.7110 n         1 MOL     -0.038110
     42 C13        -4.3150    3.4750   -2.8210 c3        1 MOL      0.046640
     43 C14        -5.4480    2.4930   -2.5630 c         1 MOL      0.323862
     44 O6         -6.2460    2.2370   -3.4770 o         1 MOL     -0.499870
     45 C15        -3.5120    3.0580   -4.0310 c3        1 MOL     -0.335351
     46 C16        -2.5970    1.8220   -3.8090 c         1 MOL      0.831149
     47 O7         -1.6480    1.6950   -4.5550 o         1 MOL     -0.692755
     48 O8         -2.8590    0.9590   -2.9040 o         1 MOL     -0.692755
     49 H21        -2.7980    2.8630   -1.5290 hn        1 MOL      0.099160
     50 H22        -4.7880    4.4480   -2.9830 h1        1 MOL      0.098996
     51 H23        -2.8650    3.9330   -4.1660 hc        1 MOL      0.077216
     52 H24        -4.1590    2.8350   -4.8760 hc        1 MOL      0.077216
     53 N5         -5.5650    1.9970   -1.3100 n         1 MOL     -0.025947
     54 C17        -6.7900    1.3700   -0.7090 c3        1 MOL     -0.275989
     55 C18        -7.0950   -0.0010   -1.3030 c         1 MOL      0.527333
     56 O9         -8.2860   -0.3230   -1.4990 o         1 MOL     -0.599910
     57 H25        -4.7500    2.1580   -0.7380 hn        1 MOL     -0.037481
     58 H26        -7.6290    1.9880   -1.0260 h1        1 MOL      0.140358
     59 H27        -6.6850    1.4190    0.3740 h1        1 MOL      0.140358
     60 N6         -6.1280   -0.8220   -1.6900 n         1 MOL     -0.089692
     61 C19        -6.2330   -2.1700   -2.3500 c3        1 MOL     -0.150741
     62 C20        -6.3250   -3.2190   -1.2040 c         1 MOL      0.417503
     63 O10        -6.1380   -4.4140   -1.4930 o         1 MOL     -0.516605
     64 C21        -5.0860   -2.4370   -3.3130 c3        1 MOL     -0.107142
     65 C22        -3.7230   -2.3970   -2.7660 c         1 MOL      0.798527
     66 O11        -2.6940   -2.1720   -3.4620 o         1 MOL     -0.752955
     67 O12        -3.5140   -2.6330   -1.5640 o         1 MOL     -0.752955
     68 H28        -5.1740   -0.5470   -1.4870 hn        1 MOL      0.028594
     69 H29        -7.1900   -2.1110   -2.8620 h1        1 MOL      0.133599
     70 H30        -5.1340   -1.6940   -4.1110 hc        1 MOL      0.072105
     71 H31        -5.2180   -3.3740   -3.8480 hc        1 MOL      0.072105
     72 N7         -6.4780   -2.8240    0.0390 n         1 MOL     -0.216694
     73 C23        -6.5550   -3.7300    1.1960 c3        1 MOL     -0.273630
     74 C24        -5.2450   -4.3510    1.6470 c         1 MOL      0.599434
     75 O13        -5.1490   -5.2370    2.4700 o         1 MOL     -0.584524
     76 H32        -6.5150   -1.8290    0.2010 hn        1 MOL      0.272433
     77 H33        -7.2180   -4.5700    1.0100 h1        1 MOL      0.128317
     78 H34        -6.9120   -3.0930    2.0100 h1        1 MOL      0.128317
     79 N8         -4.1190   -3.9480    1.0220 n         1 MOL     -0.092462
     80 C25        -2.8040   -4.4610    1.2200 c3        1 MOL     -0.435522
     81 C26        -1.7100   -3.4230    1.3620 c         1 MOL      0.815272
     82 O14        -1.6670   -2.4840    0.6090 o         1 MOL     -0.710636
     83 C27        -2.4030   -5.4820    0.0920 c3        1 MOL      0.594709
     84 C28        -2.5520   -6.8730    0.5700 c3        1 MOL     -0.383566
     85 O15        -3.1470   -5.3820   -1.1680 oh        1 MOL     -0.657600
     86 H35        -4.2210   -3.1340    0.4370 hn        1 MOL      0.127122
     87 H36        -2.7880   -5.0520    2.1390 h1        1 MOL      0.116302
     88 H37        -1.3880   -5.3290   -0.2660 h1        1 MOL     -0.051979
     89 H38        -3.5010   -4.4870   -1.2050 ho        1 MOL      0.424187
     90 H39        -2.6110   -7.5050   -0.3120 hc        1 MOL      0.087708
     91 H40        -1.6890   -7.2030    1.1470 hc        1 MOL      0.087708
     92 H41        -3.3990   -7.0560    1.2400 hc        1 MOL      0.087708
     93 N9         -0.7020   -3.7290    2.1740 n         1 MOL     -0.658697
     94 C29         0.4660   -2.8180    2.2870 c3        1 MOL      0.145982
     95 C30         1.6140   -3.3740    1.4830 c         1 MOL      0.382603
     96 O16         2.1250   -4.4630    1.8240 o         1 MOL     -0.550274
     97 C31         0.7230   -2.5710    3.7930 c3        1 MOL      0.025683
     98 C32        -0.2850   -1.6260    4.3900 c3        1 MOL      0.009612
     99 C33         2.1920   -1.9840    4.0240 c3        1 MOL     -0.385422
    100 C34        -0.1410   -1.4940    5.9240 c3        1 MOL     -0.096367
    101 H42        -0.7700   -4.4960    2.8390 hn        1 MOL      0.345269
    102 H43         0.2290   -1.8380    1.8710 h1        1 MOL      0.058399
    103 H44         0.5990   -3.5440    4.2750 hc        1 MOL      0.035734
    104 H45        -1.3140   -1.9290    4.2080 hc        1 MOL      0.027266
    105 H46        -0.1690   -0.6420    3.9400 hc        1 MOL      0.027266
    106 H47         2.9440   -2.7310    3.7980 hc        1 MOL      0.101628
    107 H48         2.2590   -1.0800    3.4230 hc        1 MOL      0.101628
    108 H49         2.3600   -1.7000    5.0610 hc        1 MOL      0.101628
    109 H50        -0.2480   -2.4740    6.3950 hc        1 MOL      0.024842
    110 H51         0.7250   -0.9680    6.3300 hc        1 MOL      0.024842
    111 H52        -0.9270   -0.8520    6.3240 hc        1 MOL      0.024842
    112 N10         2.1190   -2.6610    0.4970 n         1 MOL     -0.025397
    113 C35         3.3140   -3.0750   -0.2550 c3        1 MOL     -0.125332
    114 C36         4.5390   -2.4520    0.3630 c         1 MOL      0.373397
    115 O17         4.5100   -1.6200    1.2700 o         1 MOL     -0.279630
    116 C37         3.1570   -2.5310   -1.7100 c3        1 MOL      0.192172
    117 C38         1.9450   -2.9690   -2.5620 c3        1 MOL     -0.329561
    118 O18         3.1000   -1.1220   -1.6380 oh        1 MOL     -0.581701
    119 H53         1.5500   -1.8810    0.2120 hn        1 MOL      0.146335
    120 H54         3.4070   -4.1550   -0.3080 h1        1 MOL      0.102484
    121 H55         4.0340   -2.8240   -2.2910 h1        1 MOL      0.037296
    122 H56         2.2400   -0.8830   -1.2930 ho        1 MOL      0.393872
    123 H57         2.1050   -2.4670   -3.5200 hc        1 MOL      0.099809
    124 H58         2.0230   -4.0310   -2.7770 hc        1 MOL      0.099809
    125 H59         0.9470   -2.7420   -2.1820 hc        1 MOL      0.099809
    126 N11         5.8110   -2.7820   -0.1120 n         1 MOL     -0.387589
    127 C39         7.1470   -2.2330    0.2730 c3        1 MOL     -0.080021
    128 C40         7.1630   -0.6990    0.1440 c         1 MOL      0.402909
    129 O19         7.5810   -0.0940    1.1300 o         1 MOL     -0.532166
    130 C41         8.3330   -2.6800   -0.6480 c3        1 MOL      0.211020
    131 C42         8.8180   -4.1000   -0.2850 c3        1 MOL     -0.267075
    132 O20         7.9440   -2.4650   -1.9940 oh        1 MOL     -0.640945
    133 H60         5.9240   -3.4840   -0.8260 hn        1 MOL      0.279308
    134 H61         7.3640   -2.4700    1.3060 h1        1 MOL      0.155508
    135 H62         9.2470   -2.1100   -0.4540 h1        1 MOL      0.049417
    136 H63         8.6570   -2.8040   -2.5350 ho        1 MOL      0.397888
    137 H64         9.7710   -4.3560   -0.7430 hc        1 MOL      0.085586
    138 H65         8.9550   -4.0500    0.7940 hc        1 MOL      0.085586
    139 H66         8.1360   -4.9210   -0.5020 hc        1 MOL      0.085586
    140 N12         6.6950   -0.1270   -0.9020 n         1 MOL     -0.312324
    141 C43         6.6660    1.3740   -1.0640 c3        1 MOL     -0.135704
    142 C44         5.6250    2.0580   -0.0910 c         1 MOL      0.442470
    143 O21         5.5900    3.2520    0.1400 o         1 MOL     -0.536006
    144 C45         6.2180    1.6790   -2.4330 c3        1 MOL     -0.286650
    145 C46         7.2030    1.3580   -3.6080 c3        1 MOL      0.023293
    146 C47         8.6230    1.8740   -3.3840 c3        1 MOL      0.039766
    147 C48         9.4120    1.7400   -4.6670 c3        1 MOL     -0.106734
    148 N13        10.0380    0.4680   -4.9580 n4        1 MOL     -0.282341
    149 H67         6.4890   -0.7540   -1.6690 hn        1 MOL      0.329946
    150 H68         7.6690    1.7170   -0.8080 h1        1 MOL      0.144108
    151 H69         6.0930    2.7550   -2.5400 hc        1 MOL      0.136762
    152 H70         5.2660    1.2220   -2.6910 hc        1 MOL      0.136762
    153 H71         6.8400    1.8560   -4.5080 hc        1 MOL      0.017829
    154 H72         7.3030    0.2900   -3.8020 hc        1 MOL      0.017829
    155 H73         9.2400    1.3720   -2.6320 hc        1 MOL      0.047001
    156 H74         8.6860    2.8930   -2.9870 hc        1 MOL      0.047001
    157 H75        10.2200    2.4600   -4.5240 hx        1 MOL      0.118806
    158 H76         8.7480    2.0940   -5.4500 hx        1 MOL      0.118806
    159 H77        10.3440    0.4510   -5.9240 hn        1 MOL      0.288088
    160 H78        10.7220    0.2330   -4.2570 hn        1 MOL      0.288088
    161 H79         9.5150   -0.3840   -4.8590 hn        1 MOL      0.288088
    162 N14         4.8500    1.2520    0.6360 n         1 MOL     -0.110217
    163 C49         3.8120    1.7610    1.6020 c3        1 MOL     -0.111623
    164 C50         4.2040    1.3630    3.1030 c         1 MOL      0.413541
    165 O22         3.7980    2.0590    4.0660 o         1 MOL     -0.554026
    166 C51         2.5080    1.1180    1.1840 c3        1 MOL      0.115532
    167 C52         1.6940    1.7980    0.1100 c3        1 MOL     -0.246670
    168 C53         0.5640    0.8880   -0.3160 c         1 MOL      0.692836
    169 O23        -0.4010    1.5130   -0.7280 o         1 MOL     -0.697156
    170 O24         0.6230   -0.3440   -0.4190 o         1 MOL     -0.697156
    171 H80         4.8420    0.2530    0.4500 hn        1 MOL      0.134749
    172 H81         3.7960    2.8500    1.6980 h1        1 MOL      0.125595
    173 H82         1.9390    1.0580    2.1160 hc        1 MOL      0.012927
    174 H83         2.7360    0.1120    0.8580 hc        1 MOL      0.012927
    175 H84         2.3350    1.8540   -0.7690 hc        1 MOL      0.061141
    176 H85         1.3060    2.7470    0.4810 hc        1 MOL      0.061141
    177 N15         5.0130    0.3760    3.3270 n         1 MOL     -0.096197
    178 C54         5.5050   -0.2160    4.5760 c3        1 MOL     -0.250973
    179 H86         6.1190   -1.0870    4.3480 h1        1 MOL      0.104033
    180 H87         6.1030    0.5190    5.1160 h1        1 MOL      0.104033
    181 H88         4.6590   -0.5200    5.1930 h1        1 MOL      0.104033
    182 H89         5.2160   -0.1600    2.4840 hn        1 MOL      0.117549
    183 Ca1        -1.7730   -0.7540   -1.4130 Ca        1 MOL      1.769078
    184 O25        -0.1010   -0.1480   -3.3380 oh        1 MOL     -0.849259
    185 H90        -0.5220    0.4200   -3.9880 ho        1 MOL      0.392985
    186 H91         0.8310   -0.1110   -3.5580 ho        1 MOL      0.392985
@<TRIPOS>BOND
     1    1    2 1   
     2    1    4 1   
     3    1    5 1   
     4    1    6 1   
     5    2    3 2   
     6    2    7 1   
     7    7    8 1   
     8    7   15 1   
     9    8    9 1   
    10    8   11 1   
    11    8   16 1   
    12    9   10 2   
    13    9   19 1   
    14   11   12 1   
    15   11   17 1   
    16   11   18 1   
    17   12   13 1   
    18   12   14 1   
    19   19   20 1   
    20   19   28 1   
    21   20   21 1   
    22   20   23 1   
    23   20   29 1   
    24   21   22 2   
    25   21   41 1   
    26   23   24 1   
    27   23   30 1   
    28   23   31 1   
    29   24   25 1   
    30   24   32 1   
    31   24   33 1   
    32   25   26 1   
    33   25   34 1   
    34   25   35 1   
    35   26   27 1   
    36   26   36 1   
    37   26   37 1   
    38   27   38 1   
    39   27   39 1   
    40   27   40 1   
    41   41   42 1   
    42   41   49 1   
    43   42   43 1   
    44   42   45 1   
    45   42   50 1   
    46   43   44 2   
    47   43   53 1   
    48   45   46 1   
    49   45   51 1   
    50   45   52 1   
    51   46   47 1   
    52   46   48 1   
    53   53   54 1   
    54   53   57 1   
    55   54   55 1   
    56   54   58 1   
    57   54   59 1   
    58   55   56 2   
    59   55   60 1   
    60   60   61 1   
    61   60   68 1   
    62   61   62 1   
    63   61   64 1   
    64   61   69 1   
    65   62   63 2   
    66   62   72 1   
    67   64   65 1   
    68   64   70 1   
    69   64   71 1   
    70   65   66 1   
    71   65   67 1   
    72   72   73 1   
    73   72   76 1   
    74   73   74 1   
    75   73   77 1   
    76   73   78 1   
    77   74   75 2   
    78   74   79 1   
    79   79   80 1   
    80   79   86 1   
    81   80   81 1   
    82   80   83 1   
    83   80   87 1   
    84   81   82 2   
    85   81   93 1   
    86   83   84 1   
    87   83   85 1   
    88   83   88 1   
    89   84   90 1   
    90   84   91 1   
    91   84   92 1   
    92   85   89 1   
    93   93   94 1   
    94   93  101 1   
    95   94   95 1   
    96   94   97 1   
    97   94  102 1   
    98   95   96 2   
    99   95  112 1   
   100   97   98 1   
   101   97   99 1   
   102   97  103 1   
   103   98  100 1   
   104   98  104 1   
   105   98  105 1   
   106   99  106 1   
   107   99  107 1   
   108   99  108 1   
   109  100  109 1   
   110  100  110 1   
   111  100  111 1   
   112  112  113 1   
   113  112  119 1   
   114  113  114 1   
   115  113  116 1   
   116  113  120 1   
   117  114  115 2   
   118  114  126 1   
   119  116  117 1   
   120  116  118 1   
   121  116  121 1   
   122  117  123 1   
   123  117  124 1   
   124  117  125 1   
   125  118  122 1   
   126  126  127 1   
   127  126  133 1   
   128  127  128 1   
   129  127  130 1   
   130  127  134 1   
   131  128  129 2   
   132  128  140 1   
   133  130  131 1   
   134  130  132 1   
   135  130  135 1   
   136  131  137 1   
   137  131  138 1   
   138  131  139 1   
   139  132  136 1   
   140  140  141 1   
   141  140  149 1   
   142  141  142 1   
   143  141  144 1   
   144  141  150 1   
   145  142  143 2   
   146  142  162 1   
   147  144  145 1   
   148  144  151 1   
   149  144  152 1   
   150  145  146 1   
   151  145  153 1   
   152  145  154 1   
   153  146  147 1   
   154  146  155 1   
   155  146  156 1   
   156  147  148 1   
   157  147  157 1   
   158  147  158 1   
   159  148  159 1   
   160  148  160 1   
   161  148  161 1   
   162  162  163 1   
   163  162  171 1   
   164  163  164 1   
   165  163  166 1   
   166  163  172 1   
   167  164  165 2   
   168  164  177 1   
   169  166  167 1   
   170  166  173 1   
   171  166  174 1   
   172  167  168 1   
   173  167  175 1   
   174  167  176 1   
   175  168  169 1   
   176  168  170 1   
   177  177  178 1   
   178  177  182 1   
   179  178  179 1   
   180  178  180 1   
   181  178  181 1   
   182  184  185 1   
   183  184  186 1   
@<TRIPOS>SUBSTRUCTURE
     1 MOL         1 TEMP              0 ****  ****    0 ROOT
