@<TRIPOS>MOLECULE
MOL
  175   173     1     0     0
SMALL
resp


@<TRIPOS>ATOM
      1 C1         -0.8870    4.1140    5.4860 c3        1 MOL     -0.314825
      2 C2         -0.9730    3.5280    4.0790 c         1 MOL      0.871157
      3 O1         -0.0450    3.7440    3.3010 o         1 MOL     -0.615648
      4 H1         -1.2680    5.1350    5.4780 hc        1 MOL      0.062129
      5 H2         -1.4850    3.5090    6.1690 hc        1 MOL      0.062129
      6 H3          0.1510    4.1160    5.8170 hc        1 MOL      0.062129
      7 N1         -2.0980    2.9300    3.8040 n         1 MOL     -0.716222
      8 C3         -2.5010    2.5170    2.4540 c3        1 MOL      0.177068
      9 C4         -2.9130    3.7580    1.6880 c         1 MOL      0.514589
     10 O2         -3.7370    4.5890    2.1470 o         1 MOL     -0.579840
     11 C5         -3.5320    1.3180    2.5040 c3        1 MOL     -0.105853
     12 C6         -4.0550    0.7170    1.1890 c         1 MOL      0.956091
     13 O3         -4.9980   -0.0960    1.2570 o         1 MOL     -0.782365
     14 O4         -3.6920    1.1920    0.0620 o         1 MOL     -0.782365
     15 H4         -2.9070    2.9360    4.4180 hn        1 MOL      0.349149
     16 H5         -1.6480    2.0450    1.9510 h1        1 MOL     -0.021886
     17 H6         -4.4100    1.7420    2.9990 hc        1 MOL      0.002328
     18 H7         -3.0780    0.6010    3.1780 hc        1 MOL      0.002328
     19 N2         -2.3040    3.9880    0.4700 n         1 MOL     -0.326789
     20 C7         -2.5260    5.0810   -0.4280 c3        1 MOL      0.237689
     21 C8         -3.8030    4.9040   -1.2300 c         1 MOL      0.345190
     22 O5         -4.4270    5.9080   -1.5550 o         1 MOL     -0.545204
     23 C9         -1.4000    5.1730   -1.4580 c3        1 MOL     -0.453706
     24 H8         -1.7630    3.2410    0.0730 hn        1 MOL      0.209062
     25 H9         -2.5110    6.0030    0.1750 h1        1 MOL      0.045279
     26 H10        -1.2110    4.1770   -1.8520 hc        1 MOL      0.128744
     27 H11        -1.7680    5.8850   -2.1940 hc        1 MOL      0.128744
     28 H12        -0.4990    5.5540   -0.9840 hc        1 MOL      0.128744
     29 N3         -4.2130    3.6290   -1.5960 n         1 MOL     -0.181367
     30 C10        -5.1440    3.3690   -2.6630 c3        1 MOL      0.124306
     31 C11        -6.3870    2.5560   -2.2660 c         1 MOL      0.296355
     32 O6         -7.3180    2.3170   -3.0260 o         1 MOL     -0.503357
     33 C12        -4.5360    2.7540   -3.8880 c3        1 MOL      0.007160
     34 C13        -3.7160    1.5310   -3.5330 c         1 MOL      0.737503
     35 O7         -2.5270    1.6820   -3.1980 o         1 MOL     -0.769747
     36 O8         -4.2560    0.4070   -3.4270 o         1 MOL     -0.769747
     37 H13        -3.5000    2.9580   -1.3450 hn        1 MOL      0.146281
     38 H14        -5.6060    4.2940   -3.0290 h1        1 MOL      0.062520
     39 H15        -3.8640    3.4620   -4.3640 hc        1 MOL     -0.015612
     40 H16        -5.2710    2.5460   -4.6670 hc        1 MOL     -0.015612
     41 N4         -6.4480    2.1770   -0.9860 n         1 MOL     -0.109302
     42 C14        -7.6600    1.5890   -0.4020 c3        1 MOL     -0.227488
     43 C15        -7.9290    0.1800   -0.7980 c         1 MOL      0.500079
     44 O9         -9.1020   -0.2450   -0.6960 o         1 MOL     -0.568413
     45 H17        -5.7110    2.4760   -0.3630 hn        1 MOL      0.161953
     46 H18        -8.5260    2.1990   -0.6470 h1        1 MOL      0.109693
     47 H19        -7.4530    1.6920    0.6550 h1        1 MOL      0.109693
     48 N5         -6.8890   -0.5860   -1.1460 n         1 MOL     -0.055918
     49 C16        -7.1070   -2.0120   -1.4420 c3        1 MOL     -0.026636
     50 C17        -7.0800   -2.9140   -0.1690 c         1 MOL      0.374964
     51 O10        -7.7230   -3.9890   -0.0830 o         1 MOL     -0.553087
     52 C18        -6.0900   -2.5100   -2.5000 c3        1 MOL     -0.312747
     53 C19        -4.7410   -2.9530   -1.8420 c         1 MOL      0.520664
     54 N6         -4.5000   -4.2380   -1.6500 n         1 MOL     -0.727132
     55 O11        -3.9810   -2.1130   -1.3800 o         1 MOL     -0.460748
     56 H20        -5.9470   -0.2020   -1.1960 hn        1 MOL      0.083976
     57 H21        -8.0860   -2.0170   -1.9030 h1        1 MOL      0.109461
     58 H22        -6.0230   -1.8020   -3.3260 hc        1 MOL      0.122928
     59 H23        -6.3830   -3.4680   -2.9390 hc        1 MOL      0.122928
     60 H24        -5.1800   -4.9470   -1.8730 hn        1 MOL      0.362899
     61 H25        -3.6580   -4.4900   -1.1550 hn        1 MOL      0.362899
     62 N7         -6.4190   -2.4350    0.9050 n         1 MOL     -0.128273
     63 C20        -6.4010   -3.0170    2.2440 c3        1 MOL      0.016592
     64 C21        -5.0170   -3.3840    2.7580 c         1 MOL      0.403913
     65 O12        -4.9170   -4.0450    3.7860 o         1 MOL     -0.565069
     66 H26        -5.9690   -1.5410    0.7930 hn        1 MOL      0.178055
     67 H27        -6.9790   -3.9470    2.2870 h1        1 MOL      0.069785
     68 H28        -6.9810   -2.4360    2.9630 h1        1 MOL      0.069785
     69 N8         -3.9700   -3.1280    1.9880 n         1 MOL     -0.017669
     70 C22        -2.5910   -3.4750    2.1840 c3        1 MOL     -0.030178
     71 C23        -1.5630   -2.4590    1.8380 c         1 MOL      0.592645
     72 O13        -1.7810   -1.6740    0.9490 o         1 MOL     -0.570109
     73 C24        -2.1850   -4.8480    1.5160 c3        1 MOL      0.365722
     74 C25        -3.0930   -6.0260    1.7550 c3        1 MOL     -0.250172
     75 O14        -2.0570   -4.7580    0.0940 oh        1 MOL     -0.665726
     76 H29        -4.0850   -2.6270    1.1240 hn        1 MOL     -0.071111
     77 H30        -2.3790   -3.7260    3.2200 h1        1 MOL      0.040667
     78 H31        -1.2810   -5.1590    2.0460 h1        1 MOL     -0.010752
     79 H32        -1.9490   -5.6560   -0.2250 ho        1 MOL      0.404144
     80 H33        -3.1480   -6.3250    2.8040 hc        1 MOL      0.065360
     81 H34        -4.0730   -5.8190    1.3330 hc        1 MOL      0.065360
     82 H35        -2.7530   -6.8970    1.2040 hc        1 MOL      0.065360
     83 N9         -0.4470   -2.3260    2.6150 n         1 MOL     -0.451744
     84 C26         0.7230   -1.5900    2.1530 c3        1 MOL     -0.212310
     85 C27         1.7990   -2.4900    1.3970 c         1 MOL      0.477041
     86 O15         2.3570   -3.4190    1.9530 o         1 MOL     -0.554885
     87 C28         1.3880   -0.6670    3.1740 c3        1 MOL      0.281647
     88 C29         2.1780   -1.2600    4.3380 c3        1 MOL     -0.110723
     89 C30         0.2230    0.1540    3.7540 c3        1 MOL      0.024906
     90 C31         2.9190   -0.3120    5.2770 c3        1 MOL     -0.037502
     91 H36        -0.4230   -3.0000    3.3630 hn        1 MOL      0.302255
     92 H37         0.4750   -0.8300    1.4140 h1        1 MOL      0.109548
     93 H38         2.0700    0.0750    2.7350 hc        1 MOL     -0.151648
     94 H39         2.9510   -1.8920    3.9050 hc        1 MOL      0.024809
     95 H40         1.5470   -1.9420    4.9140 hc        1 MOL      0.024809
     96 H41         0.4720    1.0200    4.3520 hc        1 MOL     -0.016435
     97 H42        -0.4550    0.5450    3.0000 hc        1 MOL     -0.016435
     98 H43        -0.2980   -0.5250    4.4290 hc        1 MOL     -0.016435
     99 H44         3.6760   -0.8310    5.8730 hc        1 MOL      0.007115
    100 H45         3.3190    0.5560    4.7490 hc        1 MOL      0.007115
    101 H46         2.1650   -0.0040    6.0010 hc        1 MOL      0.007115
    102 N10         2.0980   -2.0990    0.1710 n         1 MOL     -0.207247
    103 C32         3.2440   -2.4640   -0.6340 c3        1 MOL     -0.146939
    104 C33         4.5000   -1.5910   -0.2640 c         1 MOL      0.511584
    105 O16         4.4010   -0.6860    0.4970 o         1 MOL     -0.360957
    106 C34         2.8160   -2.2810   -2.0990 c3        1 MOL     -0.065632
    107 C35         3.8250   -2.6380   -3.1220 c         1 MOL      0.638885
    108 O17         4.7730   -3.4500   -2.8080 o         1 MOL     -0.694473
    109 O18         3.5610   -2.2370   -4.2570 o         1 MOL     -0.694473
    110 H47         1.5280   -1.4150   -0.3100 hn        1 MOL      0.225386
    111 H48         3.5290   -3.4890   -0.4320 h1        1 MOL      0.087835
    112 H49         2.5620   -1.2420   -2.3130 hc        1 MOL      0.047242
    113 H50         1.9130   -2.8630   -2.2410 hc        1 MOL      0.047242
    114 N11         5.6800   -1.9710   -0.8250 n         1 MOL     -0.513215
    115 C36         6.9800   -1.4820   -0.4980 c3        1 MOL      0.433268
    116 C37         7.1380    0.0480   -0.5820 c         1 MOL      0.376510
    117 O19         7.6150    0.6540    0.4000 o         1 MOL     -0.517769
    118 C38         8.0770   -2.1480   -1.3930 c3        1 MOL     -0.442664
    119 C39         9.4350   -1.6060   -0.9630 ca        1 MOL      0.237955
    120 C40        10.0050   -1.8050    0.3580 ca        1 MOL     -0.222590
    121 C41        10.2810   -1.1010   -1.9330 ca        1 MOL     -0.222590
    122 C42        11.2460   -1.2400    0.7110 ca        1 MOL     -0.105138
    123 C43        11.5850   -0.7220   -1.6430 ca        1 MOL     -0.105138
    124 C44        12.0150   -0.7170   -0.3070 ca        1 MOL     -0.103096
    125 H51         5.6090   -2.7870   -1.4150 hn        1 MOL      0.229734
    126 H52         7.1250   -1.7820    0.5330 h1        1 MOL     -0.006898
    127 H53         7.8200   -2.0560   -2.4460 hc        1 MOL      0.138764
    128 H54         8.0920   -3.2190   -1.1570 hc        1 MOL      0.138764
    129 H55         9.3650   -2.1030    1.1770 ha        1 MOL      0.120046
    130 H56         9.9610   -0.9200   -2.9480 ha        1 MOL      0.120046
    131 H57        11.6090   -1.0830    1.7090 ha        1 MOL      0.109411
    132 H58        12.2720   -0.3500   -2.3780 ha        1 MOL      0.109411
    133 H59        13.0510   -0.5240   -0.0380 ha        1 MOL      0.071347
    134 N12         6.5240    0.6960   -1.6190 n         1 MOL     -0.236478
    135 C45         6.5810    2.0770   -1.6680 c3        1 MOL      0.217569
    136 C46         5.8100    2.7910   -0.5510 c         1 MOL      0.209579
    137 O20         6.1920    3.8590   -0.0870 o         1 MOL     -0.496792
    138 C47         6.1490    2.4980   -3.1260 c3        1 MOL     -0.090124
    139 C48         6.0110    1.2090   -3.9590 c3        1 MOL     -0.173696
    140 C49         5.8240    0.1710   -2.8670 c3        1 MOL      0.189919
    141 H60         7.6360    2.3470   -1.5590 h1        1 MOL      0.009767
    142 H61         5.2060    3.0500   -3.0750 hc        1 MOL      0.032813
    143 H62         6.8990    3.2130   -3.4390 hc        1 MOL      0.032813
    144 H63         5.1530    1.2250   -4.6240 hc        1 MOL      0.069870
    145 H64         6.8750    1.0050   -4.5900 hc        1 MOL      0.069870
    146 H65         4.7850    0.0020   -2.5850 h1        1 MOL      0.008986
    147 H66         6.3780   -0.7230   -3.1200 h1        1 MOL      0.008986
    148 N13         4.5760    2.3700   -0.2150 n         1 MOL     -0.054449
    149 C50         3.7240    2.7370    0.8800 c3        1 MOL     -0.317193
    150 C51         4.4740    2.4400    2.1970 c         1 MOL      0.527731
    151 O21         4.2380    3.0870    3.2150 o         1 MOL     -0.611770
    152 C52         2.3940    1.9830    0.7510 c3        1 MOL      0.116613
    153 C53         1.6220    2.3890   -0.4800 c3        1 MOL     -0.435937
    154 C54         0.3920    1.4320   -0.7470 c         1 MOL      0.920654
    155 O22         0.5510    0.4090   -1.4680 o         1 MOL     -0.819588
    156 O23        -0.7100    1.6860   -0.2480 o         1 MOL     -0.819588
    157 H67         4.0710    1.6930   -0.7780 hn        1 MOL      0.216645
    158 H68         3.5100    3.8000    0.8310 h1        1 MOL      0.129361
    159 H69         1.8120    2.3450    1.5910 hc        1 MOL      0.133744
    160 H70         2.4740    0.8930    0.7110 hc        1 MOL      0.133744
    161 H71         2.2780    2.4190   -1.3510 hc        1 MOL      0.090988
    162 H72         1.3140    3.3990   -0.2260 hc        1 MOL      0.090988
    163 N14         5.0670    1.3070    2.3600 n         1 MOL      0.137294
    164 C55         5.9220    1.0810    3.5190 c3        1 MOL     -0.231595
    165 H73         6.3680    0.0880    3.4520 h1        1 MOL      0.076152
    166 H74         6.7120    1.8310    3.5410 h1        1 MOL      0.076152
    167 H75         5.3270    1.1520    4.4300 h1        1 MOL      0.076152
    168 H76         5.1380    0.6540    1.5930 hn        1 MOL     -0.051496
    169 Ca1        -2.0920   -0.2660   -1.4700 Ca        1 MOL      1.774588
    170 O24        -2.2960   -1.9300   -4.0290 oh        1 MOL     -0.823732
    171 H77        -2.5980   -1.2420   -4.6160 ho        1 MOL      0.404204
    172 H78        -2.5000   -2.7460   -4.4980 ho        1 MOL      0.404204
    173 O25        -0.7700   -2.6460   -1.4910 oh        1 MOL     -0.823732
    174 H79        -0.8840   -3.2660   -0.7720 ho        1 MOL      0.404204
    175 H80        -0.9740   -3.1550   -2.2780 ho        1 MOL      0.404204
@<TRIPOS>BOND
     1    1    2 1   
     2    1    4 1   
     3    1    5 1   
     4    1    6 1   
     5    2    3 2   
     6    2    7 1   
     7    7    8 1   
     8    7   15 1   
     9    8    9 1   
    10    8   11 1   
    11    8   16 1   
    12    9   10 2   
    13    9   19 1   
    14   11   12 1   
    15   11   17 1   
    16   11   18 1   
    17   12   13 1   
    18   12   14 1   
    19   19   20 1   
    20   19   24 1   
    21   20   21 1   
    22   20   23 1   
    23   20   25 1   
    24   21   22 2   
    25   21   29 1   
    26   23   26 1   
    27   23   27 1   
    28   23   28 1   
    29   29   30 1   
    30   29   37 1   
    31   30   31 1   
    32   30   33 1   
    33   30   38 1   
    34   31   32 2   
    35   31   41 1   
    36   33   34 1   
    37   33   39 1   
    38   33   40 1   
    39   34   35 1   
    40   34   36 1   
    41   41   42 1   
    42   41   45 1   
    43   42   43 1   
    44   42   46 1   
    45   42   47 1   
    46   43   44 2   
    47   43   48 1   
    48   48   49 1   
    49   48   56 1   
    50   49   50 1   
    51   49   52 1   
    52   49   57 1   
    53   50   51 2   
    54   50   62 1   
    55   52   53 1   
    56   52   58 1   
    57   52   59 1   
    58   53   54 1   
    59   53   55 2   
    60   54   60 1   
    61   54   61 1   
    62   62   63 1   
    63   62   66 1   
    64   63   64 1   
    65   63   67 1   
    66   63   68 1   
    67   64   65 2   
    68   64   69 1   
    69   69   70 1   
    70   69   76 1   
    71   70   71 1   
    72   70   73 1   
    73   70   77 1   
    74   71   72 2   
    75   71   83 1   
    76   73   74 1   
    77   73   75 1   
    78   73   78 1   
    79   74   80 1   
    80   74   81 1   
    81   74   82 1   
    82   75   79 1   
    83   83   84 1   
    84   83   91 1   
    85   84   85 1   
    86   84   87 1   
    87   84   92 1   
    88   85   86 2   
    89   85  102 1   
    90   87   88 1   
    91   87   89 1   
    92   87   93 1   
    93   88   90 1   
    94   88   94 1   
    95   88   95 1   
    96   89   96 1   
    97   89   97 1   
    98   89   98 1   
    99   90   99 1   
   100   90  100 1   
   101   90  101 1   
   102  102  103 1   
   103  102  110 1   
   104  103  104 1   
   105  103  106 1   
   106  103  111 1   
   107  104  105 2   
   108  104  114 1   
   109  106  107 1   
   110  106  112 1   
   111  106  113 1   
   112  107  108 1   
   113  107  109 1   
   114  114  115 1   
   115  114  125 1   
   116  115  116 1   
   117  115  118 1   
   118  115  126 1   
   119  116  117 2   
   120  116  134 1   
   121  118  119 1   
   122  118  127 1   
   123  118  128 1   
   124  119  120 ar  
   125  119  121 ar  
   126  120  122 ar  
   127  120  129 1   
   128  121  123 ar  
   129  121  130 1   
   130  122  124 ar  
   131  122  131 1   
   132  123  124 ar  
   133  123  132 1   
   134  124  133 1   
   135  134  135 1   
   136  134  140 1   
   137  135  136 1   
   138  135  138 1   
   139  135  141 1   
   140  136  137 2   
   141  136  148 1   
   142  138  139 1   
   143  138  142 1   
   144  138  143 1   
   145  139  140 1   
   146  139  144 1   
   147  139  145 1   
   148  140  146 1   
   149  140  147 1   
   150  148  149 1   
   151  148  157 1   
   152  149  150 1   
   153  149  152 1   
   154  149  158 1   
   155  150  151 2   
   156  150  163 1   
   157  152  153 1   
   158  152  159 1   
   159  152  160 1   
   160  153  154 1   
   161  153  161 1   
   162  153  162 1   
   163  154  155 1   
   164  154  156 1   
   165  163  164 1   
   166  163  168 1   
   167  164  165 1   
   168  164  166 1   
   169  164  167 1   
   170  170  171 1   
   171  170  172 1   
   172  173  174 1   
   173  173  175 1   
@<TRIPOS>SUBSTRUCTURE
     1 MOL         1 TEMP              0 ****  ****    0 ROOT
