@<TRIPOS>MOLECULE
MOL
  175   173     1     0     0
SMALL
resp


@<TRIPOS>ATOM
      1 C1          0.5270    4.2760    5.4180 c3        1 MOL     -0.289026
      2 C2         -0.1010    4.2180    4.0120 c         1 MOL      0.755471
      3 O1          0.6550    4.4510    3.0780 o         1 MOL     -0.575660
      4 H1         -0.1680    4.7560    6.1060 hc        1 MOL      0.061143
      5 H2          0.7370    3.2640    5.7630 hc        1 MOL      0.061143
      6 H3          1.4540    4.8480    5.3800 hc        1 MOL      0.061143
      7 N1         -1.3710    3.8570    3.8860 n         1 MOL     -0.634251
      8 C3         -2.0430    3.5350    2.6200 c3        1 MOL      0.043210
      9 C4         -2.3460    4.7020    1.7530 c         1 MOL      0.677315
     10 O2         -2.8210    5.7120    2.2830 o         1 MOL     -0.586860
     11 C5         -3.3520    2.9290    2.9370 c3        1 MOL     -0.275885
     12 C6         -3.9750    2.2020    1.7350 c         1 MOL      0.767078
     13 O3         -5.0640    1.7620    1.8500 o         1 MOL     -0.694253
     14 O4         -3.3540    1.9350    0.6970 o         1 MOL     -0.694253
     15 H4         -1.9260    3.5780    4.6830 hn        1 MOL      0.333535
     16 H5         -1.4430    2.8260    2.0430 h1        1 MOL      0.082584
     17 H6         -3.9340    3.7120    3.4300 hc        1 MOL      0.057673
     18 H7         -3.1000    2.2270    3.7370 hc        1 MOL      0.057673
     19 N2         -2.2670    4.6270    0.4320 n         1 MOL     -0.640358
     20 C7         -2.5800    5.6730   -0.4910 c3        1 MOL      0.201933
     21 C8         -3.4990    5.1400   -1.7080 c         1 MOL      0.540712
     22 O5         -3.5790    5.8190   -2.7510 o         1 MOL     -0.540230
     23 C9         -1.2480    6.1530   -0.9790 c3        1 MOL     -0.077638
     24 H8         -1.8310    3.8190    0.0070 hn        1 MOL      0.421924
     25 H9         -3.0660    6.5310   -0.0290 h1        1 MOL      0.026304
     26 H10        -1.3700    6.7820   -1.8680 hc        1 MOL      0.016604
     27 H11        -0.7220    6.7340   -0.2160 hc        1 MOL      0.016604
     28 H12        -0.6670    5.2520   -1.1600 hc        1 MOL      0.016604
     29 N3         -4.1920    3.9600   -1.5440 n         1 MOL     -0.651732
     30 C10        -5.0540    3.4120   -2.5500 c3        1 MOL      0.376481
     31 C11        -6.3810    2.6750   -2.0610 c         1 MOL      0.259076
     32 O6         -7.4040    2.6820   -2.7500 o         1 MOL     -0.552689
     33 C12        -4.3160    2.3600   -3.3640 c3        1 MOL     -0.461591
     34 C13        -3.5850    1.3470   -2.5750 c         1 MOL      0.750273
     35 O7         -2.3180    1.3990   -2.5440 o         1 MOL     -0.707048
     36 O8         -4.1460    0.6420   -1.6960 o         1 MOL     -0.707048
     37 H13        -3.9340    3.3750   -0.7580 hn        1 MOL      0.373173
     38 H14        -5.2910    4.2460   -3.2030 h1        1 MOL      0.041440
     39 H15        -3.5250    2.9280   -3.8370 hc        1 MOL      0.112969
     40 H16        -5.0130    1.8960   -4.0660 hc        1 MOL      0.112969
     41 N4         -6.4330    2.1390   -0.8830 n         1 MOL     -0.106703
     42 C14        -7.6210    1.4260   -0.4190 c3        1 MOL     -0.123358
     43 C15        -7.5450   -0.0660   -0.8020 c         1 MOL      0.432943
     44 O9         -8.5300   -0.7490   -0.7290 o         1 MOL     -0.602927
     45 H17        -5.5900    2.0920   -0.3440 hn        1 MOL      0.095486
     46 H18        -8.5120    1.9550   -0.7920 h1        1 MOL      0.109567
     47 H19        -7.8330    1.5380    0.6450 h1        1 MOL      0.109567
     48 N5         -6.4750   -0.6250   -1.3680 n         1 MOL     -0.108530
     49 C16        -6.3840   -2.0110   -1.9580 c3        1 MOL     -0.212251
     50 C17        -6.4130   -3.1230   -0.9170 c         1 MOL      0.519538
     51 O10        -6.5630   -4.2850   -1.2710 o         1 MOL     -0.557003
     52 C18        -5.2070   -2.1770   -2.9790 c3        1 MOL     -0.226091
     53 C19        -3.7750   -2.0790   -2.4430 c         1 MOL      0.449777
     54 N6         -2.7920   -1.7440   -3.2770 n         1 MOL     -0.691480
     55 O11        -3.4840   -2.0970   -1.2890 o         1 MOL     -0.071651
     56 H20        -5.6340   -0.0690   -1.4470 hn        1 MOL      0.239646
     57 H21        -7.3080   -2.1730   -2.5290 h1        1 MOL      0.155346
     58 H22        -5.3940   -1.5110   -3.8240 hc        1 MOL      0.090546
     59 H23        -5.2660   -3.1970   -3.3620 hc        1 MOL      0.090546
     60 H24        -2.9620   -1.5570   -4.2570 hn        1 MOL      0.329824
     61 H25        -1.8640   -1.7390   -2.8810 hn        1 MOL      0.329824
     62 N7         -6.3270   -2.8360    0.4020 n         1 MOL     -0.185840
     63 C20        -6.4090   -3.8520    1.5180 c3        1 MOL     -0.312852
     64 C21        -5.0540   -4.5280    1.7090 c         1 MOL      0.513133
     65 O12        -5.0240   -5.5890    2.4230 o         1 MOL     -0.596104
     66 H26        -6.1060   -1.8910    0.6930 hn        1 MOL      0.212187
     67 H27        -7.0650   -4.6950    1.2900 h1        1 MOL      0.146959
     68 H28        -6.7530   -3.3860    2.4420 h1        1 MOL      0.146959
     69 N8         -4.0140   -4.0170    1.1090 n         1 MOL     -0.007023
     70 C22        -2.6670   -4.5120    1.1680 c3        1 MOL     -0.191534
     71 C23        -1.5780   -3.4090    1.2260 c         1 MOL      0.436267
     72 O13        -1.7650   -2.3510    0.6990 o         1 MOL     -0.444927
     73 C24        -2.3130   -5.4180   -0.0340 c3        1 MOL      0.569110
     74 C25        -3.2330   -6.6520   -0.1370 c3        1 MOL     -0.547999
     75 O14        -2.2560   -4.7000   -1.3230 oh        1 MOL     -0.549481
     76 H29        -4.2000   -3.2530    0.4720 hn        1 MOL     -0.049978
     77 H30        -2.6790   -5.0630    2.1110 h1        1 MOL      0.048262
     78 H31        -1.2860   -5.6910    0.2090 h1        1 MOL     -0.069822
     79 H32        -2.3820   -3.7670   -1.1010 ho        1 MOL      0.177436
     80 H33        -3.5640   -7.0480    0.8370 hc        1 MOL      0.137980
     81 H34        -4.1030   -6.3270   -0.7060 hc        1 MOL      0.137980
     82 H35        -2.7180   -7.3960   -0.7350 hc        1 MOL      0.137980
     83 N9         -0.3300   -3.8060    1.7250 n         1 MOL     -0.380875
     84 C26         0.7800   -2.9370    1.8240 c3        1 MOL     -0.202861
     85 C27         1.6660   -3.1060    0.5510 c         1 MOL      0.595995
     86 O15         2.1840   -4.1530    0.2200 o         1 MOL     -0.589508
     87 C28         1.5100   -3.2260    3.0740 c3        1 MOL      0.235280
     88 C29         0.8210   -3.5930    4.4160 c3        1 MOL      0.107431
     89 C30         2.6610   -2.2450    3.2910 c3        1 MOL     -0.115268
     90 C31         1.6680   -4.0050    5.5660 c3        1 MOL     -0.045285
     91 H36        -0.2470   -4.7600    2.0400 hn        1 MOL      0.295103
     92 H37         0.3850   -1.9260    1.9230 h1        1 MOL      0.132765
     93 H38         2.0790   -4.1470    2.9090 hc        1 MOL     -0.042228
     94 H39         0.1530   -4.4120    4.1450 hc        1 MOL     -0.058947
     95 H40         0.2320   -2.7290    4.7060 hc        1 MOL     -0.058947
     96 H41         3.3350   -2.1720    2.4350 hc        1 MOL      0.006704
     97 H42         2.3330   -1.2190    3.4840 hc        1 MOL      0.006704
     98 H43         3.4130   -2.5980    3.9960 hc        1 MOL      0.006704
     99 H44         1.1340   -4.4040    6.4180 hc        1 MOL      0.003932
    100 H45         2.3210   -4.8350    5.2910 hc        1 MOL      0.003932
    101 H46         2.3270   -3.2040    5.8820 hc        1 MOL      0.003932
    102 N10         1.8160   -2.0290   -0.2400 n         1 MOL     -0.163145
    103 C32         2.6800   -1.9290   -1.4140 c3        1 MOL     -0.042697
    104 C33         4.1180   -1.4050   -0.9740 c         1 MOL      0.473456
    105 O16         4.1870   -0.6570    0.0270 o         1 MOL     -0.354792
    106 C34         2.0960   -0.9350   -2.4590 c3        1 MOL     -0.173049
    107 C35         0.6180   -1.3520   -2.8740 c         1 MOL      0.635263
    108 O17         0.4860   -1.6920   -4.0950 o         1 MOL     -0.648601
    109 O18        -0.3360   -1.0990   -2.1200 o         1 MOL     -0.648601
    110 H47         1.2820   -1.2190    0.0650 hn        1 MOL      0.068250
    111 H48         2.7860   -2.9160   -1.8650 h1        1 MOL      0.089580
    112 H49         2.6890   -0.9420   -3.3760 hc        1 MOL      0.064572
    113 H50         2.1650    0.1040   -2.1210 hc        1 MOL      0.064572
    114 N11         5.2540   -1.6980   -1.6730 n         1 MOL     -0.713158
    115 C36         6.6440   -1.4030   -1.3520 c3        1 MOL      0.576159
    116 C37         6.9540    0.0690   -0.9700 c         1 MOL      0.324789
    117 O19         7.6280    0.2310    0.0790 o         1 MOL     -0.520000
    118 C38         7.6270   -2.0180   -2.3130 c3        1 MOL     -0.366093
    119 C39         9.0480   -1.8240   -1.9660 ca        1 MOL      0.305151
    120 C40         9.7840   -0.8300   -2.4830 ca        1 MOL     -0.293244
    121 C41         9.6120   -2.6950   -1.0830 ca        1 MOL     -0.293244
    122 C42        11.1460   -0.5500   -2.0530 ca        1 MOL     -0.045006
    123 C43        10.9410   -2.5420   -0.6080 ca        1 MOL     -0.045006
    124 C44        11.7170   -1.4460   -1.0690 ca        1 MOL     -0.167618
    125 H51         5.1480   -2.2130   -2.5300 hn        1 MOL      0.326253
    126 H52         6.8280   -1.8750   -0.3980 h1        1 MOL     -0.003671
    127 H53         7.4440   -1.4910   -3.2490 hc        1 MOL      0.076372
    128 H54         7.4390   -3.0880   -2.4220 hc        1 MOL      0.076372
    129 H55         9.2790   -0.0610   -3.0370 ha        1 MOL      0.140066
    130 H56         9.1080   -3.5790   -0.7360 ha        1 MOL      0.140066
    131 H57        11.7670    0.2500   -2.4230 ha        1 MOL      0.103403
    132 H58        11.3790   -3.3610   -0.0680 ha        1 MOL      0.103403
    133 H59        12.7340   -1.3760   -0.7250 ha        1 MOL      0.111440
    134 N12         6.5340    1.0710   -1.7200 n         1 MOL     -0.118412
    135 C45         6.6350    2.4470   -1.4540 c3        1 MOL      0.055752
    136 C46         5.7590    2.8250   -0.2160 c         1 MOL      0.268659
    137 O20         6.1030    3.8530    0.3830 o         1 MOL     -0.518114
    138 C47         6.1850    3.1590   -2.7530 c3        1 MOL     -0.131794
    139 C48         6.2090    2.0570   -3.8030 c3        1 MOL      0.043925
    140 C49         5.8060    0.8330   -2.9880 c3        1 MOL     -0.057869
    141 H60         7.6920    2.7150   -1.3590 h1        1 MOL      0.088284
    142 H61         5.1870    3.5780   -2.6240 hc        1 MOL      0.065368
    143 H62         6.9300    3.9320   -2.9390 hc        1 MOL      0.065368
    144 H63         5.5430    2.2170   -4.6510 hc        1 MOL      0.003941
    145 H64         7.1890    1.9390   -4.2620 hc        1 MOL      0.003941
    146 H65         4.7150    0.8170   -2.9400 h1        1 MOL      0.052721
    147 H66         6.1340   -0.0300   -3.5530 h1        1 MOL      0.052721
    148 N13         4.7950    2.0830    0.3220 n         1 MOL     -0.076981
    149 C50         4.1920    2.3370    1.6430 c3        1 MOL     -0.082869
    150 C51         5.0340    1.6940    2.8070 c         1 MOL      0.451813
    151 O21         5.0210    2.1630    3.9370 o         1 MOL     -0.545715
    152 C52         2.7250    1.8350    1.7290 c3        1 MOL      0.183555
    153 C53         1.9320    2.1520    0.5030 c3        1 MOL     -0.134916
    154 C54         0.5300    1.5020    0.4100 c         1 MOL      0.602029
    155 O22        -0.3810    2.1640   -0.0910 o         1 MOL     -0.696314
    156 O23         0.2780    0.3340    0.8500 o         1 MOL     -0.696314
    157 H67         4.5580    1.1810   -0.0780 hn        1 MOL      0.100922
    158 H68         4.1780    3.4120    1.8140 h1        1 MOL      0.104475
    159 H69         2.3770    2.3590    2.6210 hc        1 MOL     -0.031890
    160 H70         2.7580    0.7550    1.8770 hc        1 MOL     -0.031890
    161 H71         2.5290    1.7990   -0.3360 hc        1 MOL      0.056688
    162 H72         1.8790    3.2320    0.3780 hc        1 MOL      0.056688
    163 N14         5.7660    0.6180    2.4430 n         1 MOL     -0.125452
    164 C55         6.5400   -0.1970    3.3940 c3        1 MOL     -0.162006
    165 H73         7.4290   -0.5880    2.8980 h1        1 MOL      0.074822
    166 H74         6.8400    0.4200    4.2420 h1        1 MOL      0.074822
    167 H75         5.9270   -1.0260    3.7460 h1        1 MOL      0.074822
    168 H76         5.6400    0.3210    1.4890 hn        1 MOL      0.106803
    169 Ca1        -1.9940    0.0570   -0.3900 Ca        1 MOL      1.628130
    170 O24        -1.8330   -0.2200    2.7040 oh        1 MOL     -0.785819
    171 H77        -0.9000   -0.0940    2.5820 ho        1 MOL      0.390574
    172 H78        -1.9770   -0.0620    3.6410 ho        1 MOL      0.390574
    173 O25        -4.3630   -0.9400    1.3370 oh        1 MOL     -0.785819
    174 H79        -3.7320   -0.8530    2.0520 ho        1 MOL      0.390574
    175 H80        -4.7130   -0.0640    1.2070 ho        1 MOL      0.390574
@<TRIPOS>BOND
     1    1    2 1   
     2    1    4 1   
     3    1    5 1   
     4    1    6 1   
     5    2    3 2   
     6    2    7 1   
     7    7    8 1   
     8    7   15 1   
     9    8    9 1   
    10    8   11 1   
    11    8   16 1   
    12    9   10 2   
    13    9   19 1   
    14   11   12 1   
    15   11   17 1   
    16   11   18 1   
    17   12   13 1   
    18   12   14 1   
    19   19   20 1   
    20   19   24 1   
    21   20   21 1   
    22   20   23 1   
    23   20   25 1   
    24   21   22 2   
    25   21   29 1   
    26   23   26 1   
    27   23   27 1   
    28   23   28 1   
    29   29   30 1   
    30   29   37 1   
    31   30   31 1   
    32   30   33 1   
    33   30   38 1   
    34   31   32 2   
    35   31   41 1   
    36   33   34 1   
    37   33   39 1   
    38   33   40 1   
    39   34   35 1   
    40   34   36 1   
    41   41   42 1   
    42   41   45 1   
    43   42   43 1   
    44   42   46 1   
    45   42   47 1   
    46   43   44 2   
    47   43   48 1   
    48   48   49 1   
    49   48   56 1   
    50   49   50 1   
    51   49   52 1   
    52   49   57 1   
    53   50   51 2   
    54   50   62 1   
    55   52   53 1   
    56   52   58 1   
    57   52   59 1   
    58   53   54 1   
    59   53   55 2   
    60   54   60 1   
    61   54   61 1   
    62   62   63 1   
    63   62   66 1   
    64   63   64 1   
    65   63   67 1   
    66   63   68 1   
    67   64   65 2   
    68   64   69 1   
    69   69   70 1   
    70   69   76 1   
    71   70   71 1   
    72   70   73 1   
    73   70   77 1   
    74   71   72 2   
    75   71   83 1   
    76   73   74 1   
    77   73   75 1   
    78   73   78 1   
    79   74   80 1   
    80   74   81 1   
    81   74   82 1   
    82   75   79 1   
    83   83   84 1   
    84   83   91 1   
    85   84   85 1   
    86   84   87 1   
    87   84   92 1   
    88   85   86 2   
    89   85  102 1   
    90   87   88 1   
    91   87   89 1   
    92   87   93 1   
    93   88   90 1   
    94   88   94 1   
    95   88   95 1   
    96   89   96 1   
    97   89   97 1   
    98   89   98 1   
    99   90   99 1   
   100   90  100 1   
   101   90  101 1   
   102  102  103 1   
   103  102  110 1   
   104  103  104 1   
   105  103  106 1   
   106  103  111 1   
   107  104  105 2   
   108  104  114 1   
   109  106  107 1   
   110  106  112 1   
   111  106  113 1   
   112  107  108 1   
   113  107  109 1   
   114  114  115 1   
   115  114  125 1   
   116  115  116 1   
   117  115  118 1   
   118  115  126 1   
   119  116  117 2   
   120  116  134 1   
   121  118  119 1   
   122  118  127 1   
   123  118  128 1   
   124  119  120 ar  
   125  119  121 ar  
   126  120  122 ar  
   127  120  129 1   
   128  121  123 ar  
   129  121  130 1   
   130  122  124 ar  
   131  122  131 1   
   132  123  124 ar  
   133  123  132 1   
   134  124  133 1   
   135  134  135 1   
   136  134  140 1   
   137  135  136 1   
   138  135  138 1   
   139  135  141 1   
   140  136  137 2   
   141  136  148 1   
   142  138  139 1   
   143  138  142 1   
   144  138  143 1   
   145  139  140 1   
   146  139  144 1   
   147  139  145 1   
   148  140  146 1   
   149  140  147 1   
   150  148  149 1   
   151  148  157 1   
   152  149  150 1   
   153  149  152 1   
   154  149  158 1   
   155  150  151 2   
   156  150  163 1   
   157  152  153 1   
   158  152  159 1   
   159  152  160 1   
   160  153  154 1   
   161  153  161 1   
   162  153  162 1   
   163  154  155 1   
   164  154  156 1   
   165  163  164 1   
   166  163  168 1   
   167  164  165 1   
   168  164  166 1   
   169  164  167 1   
   170  170  171 1   
   171  170  172 1   
   172  173  174 1   
   173  173  175 1   
@<TRIPOS>SUBSTRUCTURE
     1 MOL         1 TEMP              0 ****  ****    0 ROOT
