@<TRIPOS>MOLECULE
MOL
  175   173     1     0     0
SMALL
resp


@<TRIPOS>ATOM
      1 C1          0.4580    4.2010    5.4170 c3        1 MOL     -0.332609
      2 C2         -0.0900    4.0950    4.0480 c         1 MOL      0.714112
      3 O1          0.6530    4.3750    3.0940 o         1 MOL     -0.552743
      4 H1          0.7290    3.2080    5.7780 hc        1 MOL      0.074603
      5 H2          1.3430    4.8360    5.4070 hc        1 MOL      0.074603
      6 H3         -0.2930    4.6340    6.0780 hc        1 MOL      0.074603
      7 N1         -1.3160    3.5900    3.9130 n         1 MOL     -0.569032
      8 C3         -2.0460    3.3340    2.6430 c3        1 MOL      0.111400
      9 C4         -2.2880    4.6370    1.7660 c         1 MOL      0.480570
     10 O2         -2.6020    5.8020    2.2070 o         1 MOL     -0.562118
     11 C5         -3.3750    2.7190    3.0800 c3        1 MOL     -0.377784
     12 C6         -4.1490    2.1150    1.9240 c         1 MOL      0.905695
     13 O3         -3.5910    2.0140    0.8040 o         1 MOL     -0.729774
     14 O4         -5.3160    1.8270    2.1420 o         1 MOL     -0.729774
     15 H4         -1.8940    3.4170    4.7230 hn        1 MOL      0.309354
     16 H5         -1.4600    2.6270    2.0620 h1        1 MOL      0.101999
     17 H6         -3.9500    3.4700    3.6200 hc        1 MOL      0.060434
     18 H7         -3.2360    1.8750    3.7510 hc        1 MOL      0.060434
     19 N2         -2.0440    4.4340    0.4470 n         1 MOL     -0.416416
     20 C7         -2.2510    5.3500   -0.6100 c3        1 MOL      0.292221
     21 C8         -3.2510    5.0610   -1.7070 c         1 MOL      0.364432
     22 O5         -3.4210    5.8570   -2.6420 o         1 MOL     -0.553242
     23 C9         -0.8430    5.5450   -1.2470 c3        1 MOL     -0.169252
     24 H8         -1.8510    3.4740    0.1990 hn        1 MOL      0.261339
     25 H9         -2.5440    6.3250   -0.2060 h1        1 MOL      0.014158
     26 H10        -0.0130    5.4780   -0.5490 hc        1 MOL      0.041071
     27 H11        -0.7040    4.7730   -2.0060 hc        1 MOL      0.041071
     28 H12        -0.8260    6.5140   -1.7570 hc        1 MOL      0.041071
     29 N3         -3.8500    3.8990   -1.6970 n         1 MOL     -0.361645
     30 C10        -4.7830    3.4720   -2.8190 c3        1 MOL      0.177097
     31 C11        -6.1100    2.8290   -2.3960 c         1 MOL      0.246618
     32 O6         -6.9650    2.4930   -3.2350 o         1 MOL     -0.520830
     33 C12        -4.0880    2.4460   -3.6520 c3        1 MOL     -0.138156
     34 C13        -3.2650    1.4850   -2.8110 c         1 MOL      0.683405
     35 O7         -2.0350    1.4280   -3.0220 o         1 MOL     -0.680284
     36 O8         -3.7530    0.8400   -1.8660 o         1 MOL     -0.680284
     37 H13        -3.4760    3.1430   -1.1440 hn        1 MOL      0.283230
     38 H14        -4.9920    4.3830   -3.3800 h1        1 MOL      0.073901
     39 H15        -3.4120    2.9670   -4.3310 hc        1 MOL      0.031798
     40 H16        -4.7350    1.8410   -4.3040 hc        1 MOL      0.031798
     41 N4         -6.3010    2.4960   -1.1230 n         1 MOL     -0.072788
     42 C14        -7.4450    1.7110   -0.6550 c3        1 MOL     -0.308283
     43 C15        -7.4540    0.1930   -1.0230 c         1 MOL      0.555005
     44 O9         -8.5050   -0.3710   -1.0270 o         1 MOL     -0.608019
     45 H17        -5.5720    2.7790   -0.4700 hn        1 MOL      0.116454
     46 H18        -8.2670    2.1460   -1.2200 h1        1 MOL      0.142047
     47 H19        -7.7010    1.8950    0.3870 h1        1 MOL      0.142047
     48 N5         -6.3170   -0.4530   -1.3260 n         1 MOL     -0.151154
     49 C16        -6.2870   -1.7760   -1.9370 c3        1 MOL      0.137756
     50 C17        -6.4500   -2.9740   -1.0490 c         1 MOL      0.368919
     51 O10        -6.3950   -4.0980   -1.5420 o         1 MOL     -0.489614
     52 C18        -5.2130   -1.7300   -3.0500 c3        1 MOL     -0.395422
     53 C19        -3.7840   -1.9990   -2.5150 c         1 MOL      0.733974
     54 N6         -2.8140   -1.8040   -3.3490 n         1 MOL     -0.744442
     55 O11        -3.5170   -2.2630   -1.3740 o         1 MOL     -0.447370
     56 H20        -5.4640    0.0820   -1.3280 hn        1 MOL      0.088616
     57 H21        -7.1640   -1.8660   -2.5830 h1        1 MOL      0.084440
     58 H22        -5.2240   -0.7280   -3.4700 hc        1 MOL      0.105401
     59 H23        -5.3670   -2.5630   -3.7510 hc        1 MOL      0.105401
     60 H24        -2.9860   -1.6440   -4.3360 hn        1 MOL      0.348378
     61 H25        -1.9040   -1.6250   -2.9550 hn        1 MOL      0.348378
     62 N7         -6.6070   -2.7530    0.3040 n         1 MOL     -0.344717
     63 C20        -6.5380   -3.8790    1.2860 c3        1 MOL     -0.116716
     64 C21        -5.1720   -4.5670    1.6490 c         1 MOL      0.402989
     65 O12        -5.2400   -5.5190    2.4750 o         1 MOL     -0.557583
     66 H26        -6.5430   -1.7990    0.6120 hn        1 MOL      0.261133
     67 H27        -7.1350   -4.7190    0.9240 h1        1 MOL      0.102963
     68 H28        -7.0710   -3.4990    2.1630 h1        1 MOL      0.102963
     69 N8         -4.0490   -4.0160    1.1830 n         1 MOL     -0.004411
     70 C22        -2.6980   -4.6230    1.2700 c3        1 MOL     -0.565402
     71 C23        -1.5470   -3.5240    1.2810 c         1 MOL      1.001506
     72 O13        -1.7130   -2.4710    0.7520 o         1 MOL     -0.808631
     73 C24        -2.4570   -5.5070    0.0830 c3        1 MOL      0.717922
     74 C25        -3.2170   -6.7840    0.3290 c3        1 MOL     -0.636511
     75 O14        -2.7840   -4.9200   -1.0850 oh        1 MOL     -0.605034
     76 H29        -4.1900   -3.0830    0.8040 hn        1 MOL      0.107411
     77 H30        -2.7780   -5.1810    2.2000 h1        1 MOL      0.146588
     78 H31        -1.3900   -5.7000    0.1280 h1        1 MOL     -0.088425
     79 H32        -2.7590   -3.9790   -0.9370 ho        1 MOL      0.299887
     80 H33        -4.2950   -6.7180    0.2100 hc        1 MOL      0.152431
     81 H34        -2.8010   -7.4680   -0.4190 hc        1 MOL      0.152431
     82 H35        -3.1030   -7.2510    1.3150 hc        1 MOL      0.152431
     83 N9         -0.4810   -3.8310    2.0260 n         1 MOL     -0.679900
     84 C26         0.7830   -3.0110    1.9980 c3        1 MOL      0.017402
     85 C27         1.4380   -3.1130    0.6360 c         1 MOL      0.564420
     86 O15         1.6110   -4.2330    0.1650 o         1 MOL     -0.573611
     87 C28         1.6580   -3.4140    3.1270 c3        1 MOL      0.092878
     88 C29         1.1210   -2.9890    4.4940 c3        1 MOL     -0.156126
     89 C30         3.1250   -2.8810    2.9240 c3        1 MOL     -0.253408
     90 C31         1.1930   -1.4900    4.8300 c3        1 MOL     -0.199524
     91 H36        -0.3620   -4.7510    2.4180 hn        1 MOL      0.323604
     92 H37         0.4130   -2.0010    2.1650 h1        1 MOL      0.171344
     93 H38         1.7730   -4.4930    3.2120 hc        1 MOL      0.028007
     94 H39         1.7020   -3.4990    5.2620 hc        1 MOL      0.055788
     95 H40         0.0990   -3.3830    4.5500 hc        1 MOL      0.055788
     96 H41         3.6560   -3.5040    2.2130 hc        1 MOL      0.060984
     97 H42         3.1560   -1.8360    2.6070 hc        1 MOL      0.060984
     98 H43         3.6450   -2.9000    3.8790 hc        1 MOL      0.060984
     99 H44         0.7180   -0.7720    4.1640 hc        1 MOL      0.054632
    100 H45         0.7500   -1.2480    5.7970 hc        1 MOL      0.054632
    101 H46         2.2380   -1.2030    4.9370 hc        1 MOL      0.054632
    102 N10         1.7530   -1.9480    0.0480 n         1 MOL     -0.242905
    103 C32         2.6480   -1.8800   -1.1040 c3        1 MOL      0.051777
    104 C33         4.0670   -1.3960   -0.8430 c         1 MOL      0.333680
    105 O16         4.3170   -0.6180    0.1050 o         1 MOL     -0.284303
    106 C34         2.0520   -1.0140   -2.1520 c3        1 MOL     -0.127955
    107 C35         0.5590   -1.1950   -2.5350 c         1 MOL      0.632785
    108 O17        -0.3200   -0.8480   -1.7010 o         1 MOL     -0.642262
    109 O18         0.2170   -1.6700   -3.6190 o         1 MOL     -0.642262
    110 H47         1.5310   -1.0550    0.4710 hn        1 MOL      0.136707
    111 H48         2.6880   -2.8490   -1.6110 h1        1 MOL      0.061849
    112 H49         2.6820   -1.0220   -3.0470 hc        1 MOL      0.037257
    113 H50         2.0230    0.0290   -1.8570 hc        1 MOL      0.037257
    114 N11         5.0670   -1.8450   -1.6210 n         1 MOL     -0.519932
    115 C36         6.5620   -1.6420   -1.2870 c3        1 MOL      0.191358
    116 C37         6.9580   -0.0940   -1.0210 c         1 MOL      0.275534
    117 O19         7.5830    0.1380    0.0210 o         1 MOL     -0.442316
    118 C38         7.3810   -2.1570   -2.4670 c3        1 MOL     -0.236009
    119 C39         8.8400   -1.9260   -2.2210 ca        1 MOL      0.109147
    120 C40         9.5790   -2.7850   -1.3760 ca        1 MOL     -0.166861
    121 C41         9.4350   -0.7790   -2.7760 ca        1 MOL     -0.166861
    122 C42        10.8920   -2.5250   -1.0470 ca        1 MOL     -0.135339
    123 C43        10.8200   -0.6220   -2.5780 ca        1 MOL     -0.135339
    124 C44        11.5750   -1.4090   -1.7180 ca        1 MOL     -0.086754
    125 H51         4.8810   -2.4450   -2.4130 hn        1 MOL      0.325864
    126 H52         6.9130   -2.2670   -0.4580 h1        1 MOL      0.081334
    127 H53         7.1630   -1.6740   -3.4100 hc        1 MOL      0.080207
    128 H54         7.1820   -3.2100   -2.6640 hc        1 MOL      0.080207
    129 H55         9.0620   -3.5670   -0.8320 ha        1 MOL      0.123297
    130 H56         8.8190   -0.0550   -3.2960 ha        1 MOL      0.123297
    131 H57        11.2830   -3.1270   -0.2360 ha        1 MOL      0.118731
    132 H58        11.2660    0.3040   -2.8910 ha        1 MOL      0.118731
    133 H59        12.6170   -1.2080   -1.4990 ha        1 MOL      0.100816
    134 N12         6.4590    0.9140   -1.8060 n         1 MOL      0.089363
    135 C45         6.5990    2.2950   -1.3740 c3        1 MOL     -0.112237
    136 C46         5.9530    2.6510    0.0200 c         1 MOL      0.246468
    137 O20         6.4260    3.5610    0.7070 o         1 MOL     -0.505001
    138 C47         5.8370    3.1620   -2.4820 c3        1 MOL      0.073138
    139 C48         5.7610    2.2310   -3.6970 c3        1 MOL     -0.060062
    140 C49         5.7170    0.8700   -3.0170 c3        1 MOL     -0.095336
    141 H60         7.6500    2.5690   -1.3380 h1        1 MOL      0.080610
    142 H61         4.7980    3.3600   -2.2070 hc        1 MOL      0.015041
    143 H62         6.3070    4.1240   -2.7160 hc        1 MOL      0.015041
    144 H63         4.9190    2.5170   -4.3290 hc        1 MOL      0.035658
    145 H64         6.7420    2.3090   -4.1780 hc        1 MOL      0.035658
    146 H65         4.7070    0.5880   -2.7310 h1        1 MOL      0.034943
    147 H66         6.1010    0.0850   -3.6680 h1        1 MOL      0.034943
    148 N13         4.9330    1.9840    0.5260 n         1 MOL      0.109594
    149 C50         4.2900    2.2290    1.7770 c3        1 MOL     -0.362076
    150 C51         5.0540    1.5460    2.9160 c         1 MOL      0.611014
    151 O21         5.3170    2.0250    3.9880 o         1 MOL     -0.575663
    152 C52         2.8270    1.7340    1.7470 c3        1 MOL      0.106926
    153 C53         1.9630    2.2090    0.5630 c3        1 MOL     -0.209384
    154 C54         0.5130    1.5800    0.5680 c         1 MOL      0.581508
    155 O22        -0.3860    2.1330   -0.1210 o         1 MOL     -0.669013
    156 O23         0.2670    0.5300    1.2610 o         1 MOL     -0.669013
    157 H67         4.5170    1.2670   -0.0630 hn        1 MOL      0.135796
    158 H68         4.1470    3.2970    1.9670 h1        1 MOL      0.152757
    159 H69         2.2460    2.0710    2.6070 hc        1 MOL     -0.004787
    160 H70         2.7760    0.6490    1.7650 hc        1 MOL     -0.004787
    161 H71         2.5030    1.9920   -0.3610 hc        1 MOL      0.083596
    162 H72         1.8270    3.2930    0.6400 hc        1 MOL      0.083596
    163 N14         5.3400    0.2780    2.6560 n         1 MOL     -0.194516
    164 C55         6.2490   -0.5310    3.4840 c3        1 MOL     -0.121369
    165 H73         5.7480   -1.4540    3.7760 h1        1 MOL      0.060825
    166 H74         7.1450   -0.7690    2.9120 h1        1 MOL      0.060825
    167 H75         6.5240    0.0310    4.3760 h1        1 MOL      0.060825
    168 H76         5.1320   -0.0310    1.7170 hn        1 MOL      0.100842
    169 Ca1        -1.9550   -0.0360   -0.1810 Ca        1 MOL      1.690203
    170 O24        -4.1390   -0.9160    1.5230 oh        1 MOL     -0.806494
    171 H77        -3.5720   -1.0300    2.2810 ho        1 MOL      0.400699
    172 H78        -4.9580   -0.5700    1.8860 ho        1 MOL      0.400699
    173 O25        -1.6540   -0.4460    2.8310 oh        1 MOL     -0.806494
    174 H79        -0.7390   -0.2460    2.6730 ho        1 MOL      0.400699
    175 H80        -1.7590   -0.3820    3.7820 ho        1 MOL      0.400699
@<TRIPOS>BOND
     1    1    2 1   
     2    1    4 1   
     3    1    5 1   
     4    1    6 1   
     5    2    3 2   
     6    2    7 1   
     7    7    8 1   
     8    7   15 1   
     9    8    9 1   
    10    8   11 1   
    11    8   16 1   
    12    9   10 2   
    13    9   19 1   
    14   11   12 1   
    15   11   17 1   
    16   11   18 1   
    17   12   13 1   
    18   12   14 1   
    19   19   20 1   
    20   19   24 1   
    21   20   21 1   
    22   20   23 1   
    23   20   25 1   
    24   21   22 2   
    25   21   29 1   
    26   23   26 1   
    27   23   27 1   
    28   23   28 1   
    29   29   30 1   
    30   29   37 1   
    31   30   31 1   
    32   30   33 1   
    33   30   38 1   
    34   31   32 2   
    35   31   41 1   
    36   33   34 1   
    37   33   39 1   
    38   33   40 1   
    39   34   35 1   
    40   34   36 1   
    41   41   42 1   
    42   41   45 1   
    43   42   43 1   
    44   42   46 1   
    45   42   47 1   
    46   43   44 2   
    47   43   48 1   
    48   48   49 1   
    49   48   56 1   
    50   49   50 1   
    51   49   52 1   
    52   49   57 1   
    53   50   51 2   
    54   50   62 1   
    55   52   53 1   
    56   52   58 1   
    57   52   59 1   
    58   53   54 1   
    59   53   55 2   
    60   54   60 1   
    61   54   61 1   
    62   62   63 1   
    63   62   66 1   
    64   63   64 1   
    65   63   67 1   
    66   63   68 1   
    67   64   65 2   
    68   64   69 1   
    69   69   70 1   
    70   69   76 1   
    71   70   71 1   
    72   70   73 1   
    73   70   77 1   
    74   71   72 2   
    75   71   83 1   
    76   73   74 1   
    77   73   75 1   
    78   73   78 1   
    79   74   80 1   
    80   74   81 1   
    81   74   82 1   
    82   75   79 1   
    83   83   84 1   
    84   83   91 1   
    85   84   85 1   
    86   84   87 1   
    87   84   92 1   
    88   85   86 2   
    89   85  102 1   
    90   87   88 1   
    91   87   89 1   
    92   87   93 1   
    93   88   90 1   
    94   88   94 1   
    95   88   95 1   
    96   89   96 1   
    97   89   97 1   
    98   89   98 1   
    99   90   99 1   
   100   90  100 1   
   101   90  101 1   
   102  102  103 1   
   103  102  110 1   
   104  103  104 1   
   105  103  106 1   
   106  103  111 1   
   107  104  105 2   
   108  104  114 1   
   109  106  107 1   
   110  106  112 1   
   111  106  113 1   
   112  107  108 1   
   113  107  109 1   
   114  114  115 1   
   115  114  125 1   
   116  115  116 1   
   117  115  118 1   
   118  115  126 1   
   119  116  117 2   
   120  116  134 1   
   121  118  119 1   
   122  118  127 1   
   123  118  128 1   
   124  119  120 ar  
   125  119  121 ar  
   126  120  122 ar  
   127  120  129 1   
   128  121  123 ar  
   129  121  130 1   
   130  122  124 ar  
   131  122  131 1   
   132  123  124 ar  
   133  123  132 1   
   134  124  133 1   
   135  134  135 1   
   136  134  140 1   
   137  135  136 1   
   138  135  138 1   
   139  135  141 1   
   140  136  137 2   
   141  136  148 1   
   142  138  139 1   
   143  138  142 1   
   144  138  143 1   
   145  139  140 1   
   146  139  144 1   
   147  139  145 1   
   148  140  146 1   
   149  140  147 1   
   150  148  149 1   
   151  148  157 1   
   152  149  150 1   
   153  149  152 1   
   154  149  158 1   
   155  150  151 2   
   156  150  163 1   
   157  152  153 1   
   158  152  159 1   
   159  152  160 1   
   160  153  154 1   
   161  153  161 1   
   162  153  162 1   
   163  154  155 1   
   164  154  156 1   
   165  163  164 1   
   166  163  168 1   
   167  164  165 1   
   168  164  166 1   
   169  164  167 1   
   170  170  171 1   
   171  170  172 1   
   172  173  174 1   
   173  173  175 1   
@<TRIPOS>SUBSTRUCTURE
     1 MOL         1 TEMP              0 ****  ****    0 ROOT
