@<TRIPOS>MOLECULE
MOL
  189   185     1     0     0
SMALL
resp


@<TRIPOS>ATOM
      1 C1         -0.2840    1.5500    6.2610 c3        1 MOL     -0.207370
      2 C2         -0.6580    1.4220    4.8110 c         1 MOL      0.695939
      3 O1          0.1910    1.8200    3.9550 o         1 MOL     -0.655182
      4 H1          0.6890    2.0360    6.3430 hc        1 MOL      0.055566
      5 H2         -1.0330    2.1490    6.7780 hc        1 MOL      0.055566
      6 H3         -0.2340    0.5600    6.7120 hc        1 MOL      0.055566
      7 N1         -1.8280    0.9500    4.4620 n         1 MOL     -0.591897
      8 C3         -2.2620    1.1250    3.1000 c3        1 MOL      0.063347
      9 C4         -2.5390    2.6340    2.8940 c         1 MOL      0.642955
     10 O2         -3.2070    3.2440    3.6890 o         1 MOL     -0.556795
     11 C5         -3.4330    0.1990    2.8550 c3        1 MOL     -0.079657
     12 C6         -4.0600    0.3450    1.4910 c         1 MOL      0.754160
     13 O3         -3.5000    0.9310    0.5430 o         1 MOL     -0.728489
     14 O4         -5.2370   -0.0720    1.3660 o         1 MOL     -0.728489
     15 H4         -2.4080    0.4960    5.1610 hn        1 MOL      0.335135
     16 H5         -1.4120    0.8030    2.5070 h1        1 MOL     -0.037831
     17 H6         -4.1980    0.3520    3.6140 hc        1 MOL      0.036262
     18 H7         -3.1920   -0.8610    2.7700 hc        1 MOL      0.036262
     19 N2         -2.1060    3.2120    1.7460 n         1 MOL     -0.348223
     20 C7         -2.4240    4.5910    1.3910 c3        1 MOL      0.122514
     21 C8         -3.5710    4.8430    0.4210 c         1 MOL      0.448151
     22 O5         -4.4490    5.6810    0.7010 o         1 MOL     -0.559951
     23 C9         -1.1540    5.2790    0.8680 c3        1 MOL     -0.094322
     24 C10         0.0500    5.1120    1.7640 c3        1 MOL      0.092343
     25 C11         1.2100    6.0220    1.5130 c3        1 MOL      0.020310
     26 C12         1.9490    5.5750    0.2190 c3        1 MOL      0.098217
     27 N3          2.8940    6.6170   -0.2010 n4        1 MOL     -0.381089
     28 H8         -1.6050    2.6430    1.0710 hn        1 MOL      0.142390
     29 H9         -2.6400    5.1400    2.3080 h1        1 MOL      0.042391
     30 H10        -1.4130    6.3410    0.8580 hc        1 MOL      0.008802
     31 H11        -0.8360    5.0540   -0.1520 hc        1 MOL      0.008802
     32 H12         0.4070    4.0830    1.7540 hc        1 MOL      0.038049
     33 H13        -0.3390    5.2580    2.7770 hc        1 MOL      0.038049
     34 H14         1.8910    5.9160    2.3530 hc        1 MOL      0.000988
     35 H15         0.8920    7.0650    1.5200 hc        1 MOL      0.000988
     36 H16         1.2070    5.4110   -0.5630 hx        1 MOL      0.061592
     37 H17         2.4920    4.6540    0.4140 hx        1 MOL      0.061592
     38 H18         3.3930    6.2340   -0.9860 hn        1 MOL      0.321609
     39 H19         2.4890    7.5140   -0.4120 hn        1 MOL      0.321609
     40 H20         3.5830    6.7670    0.5190 hn        1 MOL      0.321609
     41 N4         -3.5190    4.0890   -0.6660 n         1 MOL     -0.353960
     42 C13        -4.4540    4.2740   -1.8160 c3        1 MOL     -0.088009
     43 C14        -5.7310    3.4780   -1.7460 c         1 MOL      0.564239
     44 O6         -6.4540    3.3860   -2.7190 o         1 MOL     -0.537025
     45 C15        -3.7260    4.1690   -3.2680 c3        1 MOL     -0.082957
     46 C16        -2.7070    3.0010   -3.4010 c         1 MOL      0.669922
     47 O7         -2.3930    2.3030   -2.4110 o         1 MOL     -0.648111
     48 O8         -2.1360    2.8270   -4.4880 o         1 MOL     -0.648111
     49 H21        -2.7770    3.4060   -0.7300 hn        1 MOL      0.231928
     50 H22        -4.7480    5.3200   -1.7920 h1        1 MOL      0.114060
     51 H23        -3.1830    5.1130   -3.4080 hc        1 MOL      0.040473
     52 H24        -4.4110    4.2880   -4.1030 hc        1 MOL      0.040473
     53 N5         -6.0180    2.9450   -0.5310 n         1 MOL     -0.457552
     54 C17        -7.4150    2.4120   -0.2000 c3        1 MOL     -0.087586
     55 C18        -7.7580    1.0280   -0.8490 c         1 MOL      0.446138
     56 O9         -8.9110    0.6120   -0.7690 o         1 MOL     -0.580153
     57 H25        -5.3750    2.9540    0.2560 hn        1 MOL      0.360165
     58 H26        -8.1020    3.1300   -0.6440 h1        1 MOL      0.105459
     59 H27        -7.6600    2.4470    0.8530 h1        1 MOL      0.105459
     60 N6         -6.8340    0.2960   -1.4320 n         1 MOL     -0.102783
     61 C19        -6.9970   -0.9610   -2.2650 c3        1 MOL     -0.116959
     62 C20        -6.9820   -2.1820   -1.3980 c         1 MOL      0.491047
     63 O10        -7.2910   -3.3060   -1.8280 o         1 MOL     -0.559960
     64 C21        -5.8440   -1.0610   -3.3110 c3        1 MOL     -0.240538
     65 C22        -4.3740   -1.0600   -2.7910 c         1 MOL      0.716755
     66 O11        -3.4690   -0.5360   -3.4710 o         1 MOL     -0.700032
     67 O12        -4.0660   -1.4970   -1.6260 o         1 MOL     -0.700032
     68 H28        -5.8920    0.5680   -1.1990 hn        1 MOL      0.128986
     69 H29        -7.9490   -0.8850   -2.7940 h1        1 MOL      0.139282
     70 H30        -5.9010   -0.1670   -3.9330 hc        1 MOL      0.089397
     71 H31        -5.9910   -1.9710   -3.8950 hc        1 MOL      0.089397
     72 N7         -6.7360   -1.9740   -0.1090 n         1 MOL     -0.200612
     73 C23        -6.9250   -2.9490    0.9340 c3        1 MOL     -0.263982
     74 C24        -5.7240   -3.8930    1.0970 c         1 MOL      0.545783
     75 O13        -5.8230   -4.9370    1.7180 o         1 MOL     -0.566691
     76 H32        -6.2720   -1.1190    0.1820 hn        1 MOL      0.298794
     77 H33        -7.7950   -3.5840    0.7260 h1        1 MOL      0.127413
     78 H34        -7.0740   -2.4610    1.8880 h1        1 MOL      0.127413
     79 N8         -4.5330   -3.5020    0.6420 n         1 MOL     -0.086837
     80 C25        -3.3140   -4.3380    0.6270 c3        1 MOL     -0.257729
     81 C26        -2.0120   -3.4830    0.6160 c         1 MOL      0.735296
     82 O14        -2.0450   -2.2540    0.5600 o         1 MOL     -0.552640
     83 C27        -3.2030   -5.1500   -0.7380 c3        1 MOL      0.430267
     84 C28        -3.9570   -6.4730   -0.7950 c3        1 MOL     -0.427091
     85 O15        -3.6630   -4.3350   -1.7840 oh        1 MOL     -0.608990
     86 H35        -4.5150   -2.6090    0.1730 hn        1 MOL      0.021835
     87 H36        -3.3750   -4.9950    1.4960 h1        1 MOL      0.108081
     88 H37        -2.1420   -5.3800   -0.7810 h1        1 MOL     -0.012306
     89 H38        -4.2600   -3.7160   -1.3800 ho        1 MOL      0.415243
     90 H39        -3.5500   -7.1610   -1.5440 hc        1 MOL      0.107877
     91 H40        -3.9450   -7.0720    0.1180 hc        1 MOL      0.107877
     92 H41        -5.0070   -6.2350   -0.9750 hc        1 MOL      0.107877
     93 N9         -0.8140   -4.1070    0.7180 n         1 MOL     -0.627862
     94 C29         0.4940   -3.4960    1.0600 c3        1 MOL      0.177748
     95 C30         1.6140   -3.9320    0.0430 c         1 MOL      0.473420
     96 O16         1.9620   -5.0730   -0.1790 o         1 MOL     -0.556304
     97 C31         0.9360   -3.8560    2.5080 c3        1 MOL      0.000084
     98 C32        -0.1260   -3.4040    3.5630 c3        1 MOL      0.011671
     99 C33         2.4180   -3.4070    2.9090 c3        1 MOL     -0.059430
    100 C34        -0.2460   -1.9300    3.9480 c3        1 MOL     -0.032351
    101 H42        -0.6960   -5.1010    0.8430 hn        1 MOL      0.300118
    102 H43         0.4370   -2.4100    1.0750 h1        1 MOL     -0.070326
    103 H44         1.0640   -4.9350    2.4780 hc        1 MOL      0.016564
    104 H45         0.1920   -3.8410    4.5080 hc        1 MOL     -0.002415
    105 H46        -1.1050   -3.8380    3.3710 hc        1 MOL     -0.002415
    106 H47         2.4780   -2.3240    3.0550 hc        1 MOL      0.005009
    107 H48         2.6350   -3.9840    3.8100 hc        1 MOL      0.005009
    108 H49         3.1760   -3.7740    2.2100 hc        1 MOL      0.005009
    109 H50         0.6210   -1.6240    4.5370 hc        1 MOL      0.021254
    110 H51        -0.2870   -1.3360    3.0420 hc        1 MOL      0.021254
    111 H52        -1.1860   -1.7630    4.4860 hc        1 MOL      0.021254
    112 N10         2.2100   -2.9350   -0.5210 n         1 MOL     -0.089654
    113 C35         3.3340   -2.9750   -1.4010 c3        1 MOL     -0.128793
    114 C36         4.7070   -2.8410   -0.6800 c         1 MOL      0.440068
    115 O17         4.7880   -2.3750    0.4890 o         1 MOL     -0.338651
    116 C37         3.2520   -1.7990   -2.4600 c3        1 MOL      0.157345
    117 C38         2.0340   -2.0670   -3.3900 c3        1 MOL     -0.253310
    118 O18         2.9470   -0.5030   -1.9790 oh        1 MOL     -0.612192
    119 H53         1.8160   -2.0280   -0.2870 hn        1 MOL      0.136762
    120 H54         3.2940   -3.9060   -1.9740 h1        1 MOL      0.111133
    121 H55         4.0720   -1.6410   -3.1530 h1        1 MOL      0.060811
    122 H56         2.1200   -0.4840   -1.4900 ho        1 MOL      0.436915
    123 H57         2.0490   -3.0600   -3.8410 hc        1 MOL      0.063542
    124 H58         1.0760   -1.9330   -2.8920 hc        1 MOL      0.063542
    125 H59         2.1000   -1.4220   -4.2640 hc        1 MOL      0.063542
    126 N11         5.8100   -2.9280   -1.4880 n         1 MOL     -0.379268
    127 C39         7.1530   -2.6120   -1.0300 c3        1 MOL     -0.021023
    128 C40         7.3310   -1.3000   -0.0890 c         1 MOL      0.082364
    129 O19         7.9170   -1.4160    1.0030 o         1 MOL     -0.397320
    130 C41         8.1740   -2.5270   -2.1780 c3        1 MOL      0.427860
    131 C42         9.6400   -2.7940   -1.7310 c3        1 MOL     -0.549201
    132 O20         7.8300   -3.4280   -3.2260 oh        1 MOL     -0.575267
    133 H60         5.7850   -3.2070   -2.4550 hn        1 MOL      0.223035
    134 H61         7.4010   -3.5030   -0.4490 h1        1 MOL      0.147313
    135 H62         8.1710   -1.4980   -2.5360 h1        1 MOL     -0.077931
    136 H63         7.5340   -2.9990   -4.0300 ho        1 MOL      0.376938
    137 H64         9.9610   -2.1800   -0.8820 hc        1 MOL      0.162566
    138 H65         9.7000   -3.8340   -1.4160 hc        1 MOL      0.162566
    139 H66        10.3100   -2.5740   -2.5530 hc        1 MOL      0.162566
    140 N12         7.0030   -0.0960   -0.5890 n         1 MOL     -0.156885
    141 C43         7.1600    1.1580    0.2010 c3        1 MOL      0.084294
    142 C44         6.1710    1.3790    1.2930 c         1 MOL      0.255382
    143 O21         6.4990    1.9600    2.3610 o         1 MOL     -0.476860
    144 C45         7.1750    2.4210   -0.7820 c3        1 MOL     -0.148387
    145 C46         8.3810    2.4430   -1.7320 c3        1 MOL      0.072343
    146 C47         8.3290    3.7780   -2.4630 c3        1 MOL     -0.385816
    147 C48         9.2370    3.7600   -3.6800 c3        1 MOL     -0.059550
    148 N13         8.8810    2.7380   -4.7110 n4        1 MOL     -0.237810
    149 H67         6.6140   -0.0360   -1.5170 hn        1 MOL      0.247976
    150 H68         8.1220    1.1570    0.7040 h1        1 MOL      0.117800
    151 H69         7.4170    3.2710   -0.1510 hc        1 MOL      0.051153
    152 H70         6.2280    2.4440   -1.3100 hc        1 MOL      0.051153
    153 H71         8.3060    1.5890   -2.4060 hc        1 MOL      0.021100
    154 H72         9.1900    2.3310   -1.0180 hc        1 MOL      0.021100
    155 H73         8.8110    4.4600   -1.7610 hc        1 MOL      0.172115
    156 H74         7.2980    4.0560   -2.6730 hc        1 MOL      0.172115
    157 H75        10.2520    3.5280   -3.3690 hx        1 MOL      0.137316
    158 H76         9.2060    4.7720   -4.0660 hx        1 MOL      0.137316
    159 H77         9.4930    2.6860   -5.5130 hn        1 MOL      0.253243
    160 H78         8.8120    1.8150   -4.3200 hn        1 MOL      0.253243
    161 H79         7.9560    2.8290   -5.0910 hn        1 MOL      0.253243
    162 N14         4.9470    0.8890    1.1230 n         1 MOL     -0.187412
    163 C49         3.9640    0.7940    2.2910 c3        1 MOL     -0.025904
    164 C50         4.4930   -0.0560    3.4190 c         1 MOL      0.495408
    165 O22         4.4610    0.3890    4.5760 o         1 MOL     -0.565391
    166 C51         2.5690    0.3130    1.8250 c3        1 MOL      0.202778
    167 C52         1.7420    1.3440    0.9620 c3        1 MOL      0.170631
    168 C53         0.6710    0.8010    0.0920 c         1 MOL      0.601050
    169 O23         0.6450   -0.3670   -0.3270 o         1 MOL     -0.631957
    170 O24        -0.2300    1.5440   -0.3010 o         1 MOL     -0.631957
    171 H80         4.6390    0.4260    0.2850 hn        1 MOL      0.129492
    172 H81         3.9370    1.7690    2.7790 h1        1 MOL      0.072758
    173 H82         1.9950    0.1650    2.7430 hc        1 MOL     -0.022096
    174 H83         2.7810   -0.6640    1.3730 hc        1 MOL     -0.022096
    175 H84         2.4760    1.7880    0.2910 hc        1 MOL     -0.125089
    176 H85         1.3300    2.1530    1.5610 hc        1 MOL     -0.125089
    177 N15         5.1090   -1.1750    3.1150 n         1 MOL     -0.024062
    178 C54         5.9120   -1.9160    4.1390 c3        1 MOL     -0.317821
    179 H86         6.3760   -1.2040    4.8200 h1        1 MOL      0.118486
    180 H87         5.2580   -2.5830    4.7010 h1        1 MOL      0.118486
    181 H88         6.6860   -2.5000    3.6420 h1        1 MOL      0.118486
    182 H89         5.1200   -1.4580    2.1500 hn        1 MOL      0.109551
    183 Ca1        -1.9080   -0.1990   -1.2780 Ca        1 MOL      1.723338
    184 O25        -0.2610    0.2100   -3.3410 oh        1 MOL     -0.852587
    185 H90         0.0940   -0.2870   -4.0800 ho        1 MOL      0.406673
    186 H91        -0.4110    1.0890   -3.6950 ho        1 MOL      0.406673
    187 O26        -1.3790   -2.7450   -2.3230 oh        1 MOL     -0.852587
    188 H92        -1.0480   -2.6080   -3.2110 ho        1 MOL      0.406673
    189 H93        -1.7140   -3.6460   -2.3210 ho        1 MOL      0.406673
@<TRIPOS>BOND
     1    1    2 1   
     2    1    4 1   
     3    1    5 1   
     4    1    6 1   
     5    2    3 2   
     6    2    7 1   
     7    7    8 1   
     8    7   15 1   
     9    8    9 1   
    10    8   11 1   
    11    8   16 1   
    12    9   10 2   
    13    9   19 1   
    14   11   12 1   
    15   11   17 1   
    16   11   18 1   
    17   12   13 1   
    18   12   14 1   
    19   19   20 1   
    20   19   28 1   
    21   20   21 1   
    22   20   23 1   
    23   20   29 1   
    24   21   22 2   
    25   21   41 1   
    26   23   24 1   
    27   23   30 1   
    28   23   31 1   
    29   24   25 1   
    30   24   32 1   
    31   24   33 1   
    32   25   26 1   
    33   25   34 1   
    34   25   35 1   
    35   26   27 1   
    36   26   36 1   
    37   26   37 1   
    38   27   38 1   
    39   27   39 1   
    40   27   40 1   
    41   41   42 1   
    42   41   49 1   
    43   42   43 1   
    44   42   45 1   
    45   42   50 1   
    46   43   44 2   
    47   43   53 1   
    48   45   46 1   
    49   45   51 1   
    50   45   52 1   
    51   46   47 1   
    52   46   48 1   
    53   53   54 1   
    54   53   57 1   
    55   54   55 1   
    56   54   58 1   
    57   54   59 1   
    58   55   56 2   
    59   55   60 1   
    60   60   61 1   
    61   60   68 1   
    62   61   62 1   
    63   61   64 1   
    64   61   69 1   
    65   62   63 2   
    66   62   72 1   
    67   64   65 1   
    68   64   70 1   
    69   64   71 1   
    70   65   66 1   
    71   65   67 1   
    72   72   73 1   
    73   72   76 1   
    74   73   74 1   
    75   73   77 1   
    76   73   78 1   
    77   74   75 2   
    78   74   79 1   
    79   79   80 1   
    80   79   86 1   
    81   80   81 1   
    82   80   83 1   
    83   80   87 1   
    84   81   82 2   
    85   81   93 1   
    86   83   84 1   
    87   83   85 1   
    88   83   88 1   
    89   84   90 1   
    90   84   91 1   
    91   84   92 1   
    92   85   89 1   
    93   93   94 1   
    94   93  101 1   
    95   94   95 1   
    96   94   97 1   
    97   94  102 1   
    98   95   96 2   
    99   95  112 1   
   100   97   98 1   
   101   97   99 1   
   102   97  103 1   
   103   98  100 1   
   104   98  104 1   
   105   98  105 1   
   106   99  106 1   
   107   99  107 1   
   108   99  108 1   
   109  100  109 1   
   110  100  110 1   
   111  100  111 1   
   112  112  113 1   
   113  112  119 1   
   114  113  114 1   
   115  113  116 1   
   116  113  120 1   
   117  114  115 2   
   118  114  126 1   
   119  116  117 1   
   120  116  118 1   
   121  116  121 1   
   122  117  123 1   
   123  117  124 1   
   124  117  125 1   
   125  118  122 1   
   126  126  127 1   
   127  126  133 1   
   128  127  128 1   
   129  127  130 1   
   130  127  134 1   
   131  128  129 2   
   132  128  140 1   
   133  130  131 1   
   134  130  132 1   
   135  130  135 1   
   136  131  137 1   
   137  131  138 1   
   138  131  139 1   
   139  132  136 1   
   140  140  141 1   
   141  140  149 1   
   142  141  142 1   
   143  141  144 1   
   144  141  150 1   
   145  142  143 2   
   146  142  162 1   
   147  144  145 1   
   148  144  151 1   
   149  144  152 1   
   150  145  146 1   
   151  145  153 1   
   152  145  154 1   
   153  146  147 1   
   154  146  155 1   
   155  146  156 1   
   156  147  148 1   
   157  147  157 1   
   158  147  158 1   
   159  148  159 1   
   160  148  160 1   
   161  148  161 1   
   162  162  163 1   
   163  162  171 1   
   164  163  164 1   
   165  163  166 1   
   166  163  172 1   
   167  164  165 2   
   168  164  177 1   
   169  166  167 1   
   170  166  173 1   
   171  166  174 1   
   172  167  168 1   
   173  167  175 1   
   174  167  176 1   
   175  168  169 1   
   176  168  170 1   
   177  177  178 1   
   178  177  182 1   
   179  178  179 1   
   180  178  180 1   
   181  178  181 1   
   182  184  185 1   
   183  184  186 1   
   184  187  188 1   
   185  187  189 1   
@<TRIPOS>SUBSTRUCTURE
     1 MOL         1 TEMP              0 ****  ****    0 ROOT
