@<TRIPOS>MOLECULE
MOL
  189   185     1     0     0
SMALL
resp


@<TRIPOS>ATOM
      1 C1          1.0110   -3.0560    6.2380 c3        1 MOL     -0.529133
      2 C2          1.0890   -2.8330    4.6970 c         1 MOL      0.668272
      3 O1          0.2570   -2.1750    4.0250 o         1 MOL     -0.525232
      4 H1          1.9620   -2.7780    6.6930 hc        1 MOL      0.137771
      5 H2          0.2150   -2.4380    6.6550 hc        1 MOL      0.137771
      6 H3          0.8030   -4.1060    6.4440 hc        1 MOL      0.137771
      7 N1          2.0220   -3.6280    4.2030 n         1 MOL     -0.564480
      8 C3          2.5270   -3.4870    2.8170 c3        1 MOL      0.304621
      9 C4          2.3970   -4.7370    2.0210 c         1 MOL      0.578130
     10 O2          2.4570   -5.8720    2.5520 o         1 MOL     -0.631304
     11 C5          4.0440   -3.1060    2.7990 c3        1 MOL     -0.232009
     12 C6          4.5370   -2.7350    1.4030 c         1 MOL      0.694174
     13 O3          3.7960   -2.0360    0.6510 o         1 MOL     -0.632916
     14 O4          5.6330   -3.2030    1.0640 o         1 MOL     -0.632916
     15 H4          2.4610   -4.2620    4.8640 hn        1 MOL      0.315935
     16 H5          2.0710   -2.6470    2.2890 h1        1 MOL     -0.135364
     17 H6          4.5630   -3.9650    3.2160 hc        1 MOL      0.016263
     18 H7          4.2010   -2.2400    3.4330 hc        1 MOL      0.016263
     19 N2          2.2380   -4.5420    0.7140 n         1 MOL     -0.177389
     20 C7          2.2810   -5.6440   -0.2540 c3        1 MOL     -0.311045
     21 C8          3.2230   -5.2510   -1.4350 c         1 MOL      0.712075
     22 O5          3.8910   -6.1150   -1.9400 o         1 MOL     -0.602186
     23 C9          0.8450   -5.8670   -0.7700 c3        1 MOL      0.173046
     24 C10        -0.2660   -6.1530    0.2960 c3        1 MOL      0.106771
     25 C11         0.9020   -7.0640   -1.7220 c3        1 MOL     -0.208020
     26 C12        -1.6860   -6.2480   -0.2480 c3        1 MOL     -0.280008
     27 H8          2.1560   -3.6130    0.3080 hn        1 MOL      0.108260
     28 H9          2.8270   -6.4160    0.2860 h1        1 MOL      0.141824
     29 H10         0.5900   -4.9920   -1.3560 hc        1 MOL      0.031319
     30 H11        -0.2590   -5.3210    1.0010 hc        1 MOL     -0.005184
     31 H12        -0.0440   -7.0450    0.8780 hc        1 MOL     -0.005184
     32 H13         1.6450   -6.9130   -2.5040 hc        1 MOL      0.030858
     33 H14         1.1760   -7.9060   -1.0910 hc        1 MOL      0.030858
     34 H15        -0.0910   -7.2830   -2.1240 hc        1 MOL      0.030858
     35 H16        -1.7700   -7.2030   -0.7670 hc        1 MOL      0.066203
     36 H17        -2.4100   -6.2310    0.5690 hc        1 MOL      0.066203
     37 H18        -1.9460   -5.3520   -0.8140 hc        1 MOL      0.066203
     38 N3          3.4780   -3.9430   -1.7240 n         1 MOL     -0.242935
     39 C13         4.2270   -3.6060   -2.9570 c3        1 MOL     -0.008544
     40 C14         5.4760   -2.7790   -2.7350 c         1 MOL      0.393065
     41 O6          6.1930   -2.5570   -3.7040 o         1 MOL     -0.570709
     42 C15         3.3570   -3.0000   -3.9850 c3        1 MOL     -0.166953
     43 C16         2.7120   -1.6910   -3.4290 c         1 MOL      0.758295
     44 O7          3.2430   -1.1190   -2.3810 o         1 MOL     -0.695258
     45 O8          1.6350   -1.2880   -3.8640 o         1 MOL     -0.695258
     46 H19         3.2880   -3.1870   -1.0950 hn        1 MOL      0.133682
     47 H20         4.6030   -4.5600   -3.3250 h1        1 MOL      0.087840
     48 H21         2.5070   -3.6600   -4.1760 hc        1 MOL      0.042655
     49 H22         3.8220   -2.7560   -4.9410 hc        1 MOL      0.042655
     50 N4          5.8720   -2.4440   -1.5300 n         1 MOL     -0.128584
     51 C17         7.1810   -1.8100   -1.2480 c3        1 MOL      0.030133
     52 C18         7.3310   -0.3800   -1.6960 c         1 MOL      0.306627
     53 O9          8.4960    0.0360   -1.8010 o         1 MOL     -0.564767
     54 H23         5.3540   -2.8130   -0.7520 hn        1 MOL      0.089588
     55 H24         8.0010   -2.4830   -1.5010 h1        1 MOL      0.057140
     56 H25         7.3080   -1.7620   -0.1650 h1        1 MOL      0.057140
     57 N5          6.2320    0.3870   -2.0200 n         1 MOL      0.044122
     58 C19         6.3330    1.6640   -2.7190 c3        1 MOL     -0.034520
     59 C20         6.6110    2.8940   -1.7580 c         1 MOL      0.378275
     60 O10         6.9870    3.9770   -2.1760 o         1 MOL     -0.530814
     61 C21         5.0770    2.0610   -3.5230 c3        1 MOL     -0.254270
     62 C22         3.8120    2.2740   -2.6740 c         1 MOL      0.838133
     63 O11         3.7540    1.9440   -1.5170 o         1 MOL     -0.749494
     64 O12         2.8020    2.6530   -3.2880 o         1 MOL     -0.749494
     65 H26         5.3420   -0.0880   -1.9720 hn        1 MOL      0.046866
     66 H27         7.1680    1.6180   -3.4150 h1        1 MOL      0.087615
     67 H28         4.8770    1.2880   -4.2670 hc        1 MOL      0.074675
     68 H29         5.2790    2.9880   -4.0430 hc        1 MOL      0.074675
     69 N6          6.3300    2.6860   -0.4640 n         1 MOL     -0.206077
     70 C23         6.6050    3.5120    0.7340 c3        1 MOL     -0.151769
     71 C24         5.4450    4.2260    1.2550 c         1 MOL      0.482526
     72 O13         5.6220    5.0050    2.1950 o         1 MOL     -0.606874
     73 H30         5.7820    1.8630   -0.2950 hn        1 MOL      0.114351
     74 H31         7.4570    4.1770    0.6510 h1        1 MOL      0.104957
     75 H32         6.9350    2.7680    1.4690 h1        1 MOL      0.104957
     76 N7          4.2240    3.9780    0.7630 n         1 MOL     -0.161802
     77 C25         2.9300    4.4710    1.3340 c3        1 MOL     -0.209259
     78 C26         1.9080    3.3750    1.5200 c         1 MOL      0.618898
     79 O14         1.9180    2.4150    0.7340 o         1 MOL     -0.593130
     80 C27         2.3470    5.5130    0.3480 c3        1 MOL     -0.095857
     81 C28         3.1520    6.7610    0.2090 c3        1 MOL     -0.186415
     82 C29         2.4880    7.9000   -0.5460 c         1 MOL      0.625696
     83 N8          2.3500    7.8220   -1.8530 n         1 MOL     -0.782068
     84 O15         2.1980    8.9040    0.0600 o         1 MOL     -0.586411
     85 H33         4.1940    3.3140    0.0070 hn        1 MOL      0.234246
     86 H34         3.1160    4.9430    2.2930 h1        1 MOL      0.108887
     87 H35         1.3360    5.7800    0.6560 hc        1 MOL      0.088878
     88 H36         2.2260    5.0630   -0.6320 hc        1 MOL      0.088878
     89 H37         4.0180    6.4310   -0.3530 hc        1 MOL      0.091746
     90 H38         3.4100    7.0950    1.2150 hc        1 MOL      0.091746
     91 H39         2.4720    6.9350   -2.3000 hn        1 MOL      0.364748
     92 H40         1.8630    8.6130   -2.2630 hn        1 MOL      0.364748
     93 N9          1.1650    3.4100    2.5790 n         1 MOL     -0.425599
     94 C30        -0.1190    2.6660    2.6910 c3        1 MOL     -0.009186
     95 C31        -1.1510    3.3530    1.7410 c         1 MOL      0.430507
     96 O16        -1.2760    4.5420    1.7150 o         1 MOL     -0.553041
     97 C32        -0.6060    2.6550    4.1800 c3        1 MOL      0.290897
     98 C33        -1.9610    2.1400    4.2950 c3        1 MOL     -0.261585
     99 C34         0.2790    1.6890    5.0320 c3        1 MOL     -0.261585
    100 H41         1.3350    4.1450    3.2520 hn        1 MOL      0.265821
    101 H42        -0.0290    1.6150    2.4100 h1        1 MOL      0.117714
    102 H43        -0.5020    3.6460    4.6070 hc        1 MOL     -0.023751
    103 H44        -2.0540    1.1420    3.8650 hc        1 MOL      0.042206
    104 H45        -2.0080    2.1230    5.3880 hc        1 MOL      0.042206
    105 H46        -2.6780    2.8160    3.8280 hc        1 MOL      0.042206
    106 H47        -0.0150    1.7220    6.0790 hc        1 MOL      0.042206
    107 H48         0.2070    0.6570    4.7030 hc        1 MOL      0.042206
    108 H49         1.3270    1.9420    4.8470 hc        1 MOL      0.042206
    109 N10        -1.7830    2.5460    0.8730 n         1 MOL     -0.005021
    110 C35        -2.9100    2.8570    0.0460 c3        1 MOL      0.065325
    111 C36        -4.2970    2.4000    0.6120 c         1 MOL      0.461392
    112 O17        -4.2220    1.6450    1.6040 o         1 MOL     -0.529718
    113 C37        -2.6450    2.5730   -1.4690 c3        1 MOL     -0.084304
    114 C38        -3.0050    1.1270   -1.8040 c         1 MOL      0.523065
    115 N11        -1.9770    0.2800   -1.6810 n         1 MOL     -0.731552
    116 O18        -4.1660    0.8900   -2.1430 o         1 MOL     -0.534903
    117 H50        -1.6310    1.5470    0.8360 hn        1 MOL     -0.091930
    118 H51        -2.9970    3.9500    0.0310 h1        1 MOL      0.001293
    119 H52        -1.6210    2.7890   -1.7700 hc        1 MOL      0.041079
    120 H53        -3.2810    3.2560   -2.0270 hc        1 MOL      0.041079
    121 H54        -1.0550    0.6180   -1.4690 hn        1 MOL      0.397108
    122 H55        -2.1440   -0.6320   -2.0890 hn        1 MOL      0.397108
    123 N12        -5.4340    2.7500    0.0100 n         1 MOL     -0.413583
    124 C39        -6.7650    2.3930    0.6030 c3        1 MOL      0.022740
    125 C40        -6.9670    0.9020    0.8640 c         1 MOL      0.522584
    126 O19        -7.4740    0.5960    1.9340 o         1 MOL     -0.564878
    127 C41        -7.8520    2.9720   -0.3510 c3        1 MOL     -0.187282
    128 C42        -7.9710    2.3100   -1.7270 ca        1 MOL      0.127098
    129 C43        -9.0620    1.4720   -1.9400 ca        1 MOL     -0.252011
    130 C44        -7.1080    2.6460   -2.8090 ca        1 MOL     -0.252011
    131 C45        -9.1330    0.7940   -3.1690 ca        1 MOL     -0.268717
    132 C46        -7.2920    2.0440   -4.0310 ca        1 MOL     -0.268717
    133 C47        -8.2860    1.0370   -4.1860 ca        1 MOL      0.397851
    134 O20        -8.6250    0.5810   -5.3810 oh        1 MOL     -0.487923
    135 H56        -5.4220    3.4340   -0.7330 hn        1 MOL      0.271935
    136 H57        -6.8040    2.9330    1.5480 h1        1 MOL      0.075085
    137 H58        -7.7650    4.0420   -0.5640 hc        1 MOL      0.058225
    138 H59        -8.8050    2.8580    0.1570 hc        1 MOL      0.058225
    139 H60        -9.7550    1.2790   -1.1300 ha        1 MOL      0.144229
    140 H61        -6.2970    3.3460   -2.6430 ha        1 MOL      0.144229
    141 H62        -9.8760    0.0360   -3.3600 ha        1 MOL      0.161098
    142 H63        -6.7090    2.4000   -4.8660 ha        1 MOL      0.161098
    143 H64        -9.3580   -0.0300   -5.4430 ho        1 MOL      0.361999
    144 N13        -6.5160    0.0210   -0.0230 n         1 MOL     -0.425719
    145 C48        -6.5560   -1.4560    0.0280 c3        1 MOL      0.033227
    146 C49        -5.7000   -1.9350    1.1840 c         1 MOL      0.269799
    147 O21        -6.1250   -2.9310    1.7790 o         1 MOL     -0.498381
    148 C50        -6.0100   -1.9990   -1.2410 c3        1 MOL      0.114947
    149 C51        -6.9890   -1.7190   -2.3950 c3        1 MOL     -0.250038
    150 C52        -6.7890   -2.5570   -3.6190 c         1 MOL      0.758106
    151 O22        -6.1810   -2.1070   -4.6520 o         1 MOL     -0.747350
    152 O23        -7.2350   -3.7370   -3.6520 o         1 MOL     -0.747350
    153 H65        -6.1000    0.3470   -0.8860 hn        1 MOL      0.554725
    154 H66        -7.5910   -1.7330    0.2270 h1        1 MOL      0.085276
    155 H67        -5.9760   -3.0860   -1.2000 hc        1 MOL     -0.015337
    156 H68        -5.0200   -1.5830   -1.3920 hc        1 MOL     -0.015337
    157 H69        -6.7610   -0.6610   -2.5290 hc        1 MOL     -0.001510
    158 H70        -8.0000   -1.8170   -2.0090 hc        1 MOL     -0.001510
    159 N14        -4.5010   -1.3280    1.3010 n         1 MOL     -0.129019
    160 C53        -3.5790   -1.5850    2.3870 c3        1 MOL     -0.080889
    161 C54        -4.0900   -1.2500    3.8270 c         1 MOL      0.359238
    162 O24        -3.7090   -1.8910    4.8220 o         1 MOL     -0.539478
    163 C55        -2.2010   -0.9910    2.1030 c3        1 MOL      0.082328
    164 C56        -1.4910   -1.8480    1.0360 c3        1 MOL     -0.364480
    165 C57        -0.1880   -1.3170    0.4580 c         1 MOL      0.785016
    166 O25         0.0140   -0.0860    0.4160 o         1 MOL     -0.728903
    167 O26         0.7150   -2.1090    0.0130 o         1 MOL     -0.728903
    168 H71        -4.3470   -0.5080    0.7330 hn        1 MOL      0.163469
    169 H72        -3.4270   -2.6690    2.3220 h1        1 MOL      0.102661
    170 H73        -1.6720   -1.1920    3.0250 hc        1 MOL      0.097458
    171 H74        -2.2340    0.0320    1.7150 hc        1 MOL      0.097458
    172 H75        -2.1910   -2.0560    0.2250 hc        1 MOL      0.095433
    173 H76        -1.3740   -2.8590    1.4340 hc        1 MOL      0.095433
    174 N15        -5.0100   -0.3010    4.0100 n         1 MOL     -0.093704
    175 C58        -5.4750    0.1880    5.3580 c3        1 MOL     -0.083926
    176 H77        -5.0500   -0.4420    6.1390 h1        1 MOL      0.050098
    177 H78        -5.1490    1.2170    5.5050 h1        1 MOL      0.050098
    178 H79        -6.5630    0.1410    5.4060 h1        1 MOL      0.050098
    179 H80        -5.3980    0.1460    3.1920 hn        1 MOL      0.173305
    180 Ca1         2.5150    0.0120   -0.0350 Ca        1 MOL      1.776619
    181 O27         4.6780    0.6930    1.4650 oh        1 MOL     -0.881826
    182 H81         4.4930    0.9590    2.3660 ho        1 MOL      0.426923
    183 H82         5.4780    0.1800    1.5280 ho        1 MOL      0.426923
    184 O28         1.9670   -0.2320    2.7890 oh        1 MOL     -0.881826
    185 H83         1.3010   -0.7620    3.2080 ho        1 MOL      0.426923
    186 H84         2.6130   -0.0720    3.4740 ho        1 MOL      0.426923
    187 O29         1.0870    0.7770   -2.1700 oh        1 MOL     -0.881826
    188 H85         1.5080    1.5550   -2.5480 ho        1 MOL      0.426923
    189 H86         1.2370    0.0820   -2.8160 ho        1 MOL      0.426923
@<TRIPOS>BOND
     1    1    2 1   
     2    1    4 1   
     3    1    5 1   
     4    1    6 1   
     5    2    3 2   
     6    2    7 1   
     7    7    8 1   
     8    7   15 1   
     9    8    9 1   
    10    8   11 1   
    11    8   16 1   
    12    9   10 2   
    13    9   19 1   
    14   11   12 1   
    15   11   17 1   
    16   11   18 1   
    17   12   13 1   
    18   12   14 1   
    19   19   20 1   
    20   19   27 1   
    21   20   21 1   
    22   20   23 1   
    23   20   28 1   
    24   21   22 2   
    25   21   38 1   
    26   23   24 1   
    27   23   25 1   
    28   23   29 1   
    29   24   26 1   
    30   24   30 1   
    31   24   31 1   
    32   25   32 1   
    33   25   33 1   
    34   25   34 1   
    35   26   35 1   
    36   26   36 1   
    37   26   37 1   
    38   38   39 1   
    39   38   46 1   
    40   39   40 1   
    41   39   42 1   
    42   39   47 1   
    43   40   41 2   
    44   40   50 1   
    45   42   43 1   
    46   42   48 1   
    47   42   49 1   
    48   43   44 1   
    49   43   45 1   
    50   50   51 1   
    51   50   54 1   
    52   51   52 1   
    53   51   55 1   
    54   51   56 1   
    55   52   53 2   
    56   52   57 1   
    57   57   58 1   
    58   57   65 1   
    59   58   59 1   
    60   58   61 1   
    61   58   66 1   
    62   59   60 2   
    63   59   69 1   
    64   61   62 1   
    65   61   67 1   
    66   61   68 1   
    67   62   63 1   
    68   62   64 1   
    69   69   70 1   
    70   69   73 1   
    71   70   71 1   
    72   70   74 1   
    73   70   75 1   
    74   71   72 2   
    75   71   76 1   
    76   76   77 1   
    77   76   85 1   
    78   77   78 1   
    79   77   80 1   
    80   77   86 1   
    81   78   79 2   
    82   78   93 1   
    83   80   81 1   
    84   80   87 1   
    85   80   88 1   
    86   81   82 1   
    87   81   89 1   
    88   81   90 1   
    89   82   83 1   
    90   82   84 2   
    91   83   91 1   
    92   83   92 1   
    93   93   94 1   
    94   93  100 1   
    95   94   95 1   
    96   94   97 1   
    97   94  101 1   
    98   95   96 2   
    99   95  109 1   
   100   97   98 1   
   101   97   99 1   
   102   97  102 1   
   103   98  103 1   
   104   98  104 1   
   105   98  105 1   
   106   99  106 1   
   107   99  107 1   
   108   99  108 1   
   109  109  110 1   
   110  109  117 1   
   111  110  111 1   
   112  110  113 1   
   113  110  118 1   
   114  111  112 2   
   115  111  123 1   
   116  113  114 1   
   117  113  119 1   
   118  113  120 1   
   119  114  115 1   
   120  114  116 2   
   121  115  121 1   
   122  115  122 1   
   123  123  124 1   
   124  123  135 1   
   125  124  125 1   
   126  124  127 1   
   127  124  136 1   
   128  125  126 2   
   129  125  144 1   
   130  127  128 1   
   131  127  137 1   
   132  127  138 1   
   133  128  129 ar  
   134  128  130 ar  
   135  129  131 ar  
   136  129  139 1   
   137  130  132 ar  
   138  130  140 1   
   139  131  133 ar  
   140  131  141 1   
   141  132  133 ar  
   142  132  142 1   
   143  133  134 1   
   144  134  143 1   
   145  144  145 1   
   146  144  153 1   
   147  145  146 1   
   148  145  148 1   
   149  145  154 1   
   150  146  147 2   
   151  146  159 1   
   152  148  149 1   
   153  148  155 1   
   154  148  156 1   
   155  149  150 1   
   156  149  157 1   
   157  149  158 1   
   158  150  151 1   
   159  150  152 1   
   160  159  160 1   
   161  159  168 1   
   162  160  161 1   
   163  160  163 1   
   164  160  169 1   
   165  161  162 2   
   166  161  174 1   
   167  163  164 1   
   168  163  170 1   
   169  163  171 1   
   170  164  165 1   
   171  164  172 1   
   172  164  173 1   
   173  165  166 1   
   174  165  167 1   
   175  174  175 1   
   176  174  179 1   
   177  175  176 1   
   178  175  177 1   
   179  175  178 1   
   180  181  182 1   
   181  181  183 1   
   182  184  185 1   
   183  184  186 1   
   184  187  188 1   
   185  187  189 1   
@<TRIPOS>SUBSTRUCTURE
     1 MOL         1 TEMP              0 ****  ****    0 ROOT
