@<TRIPOS>MOLECULE
MOL
  189   185     1     0     0
SMALL
resp


@<TRIPOS>ATOM
      1 C1          0.8590   -2.2680    6.2690 c3        1 MOL     -0.424307
      2 C2          1.0190   -2.1600    4.7940 c         1 MOL      0.734132
      3 O1          0.7650   -1.0720    4.2380 o         1 MOL     -0.510147
      4 H1         -0.0510   -1.7510    6.5730 hc        1 MOL      0.105403
      5 H2          0.7900   -3.3190    6.5520 hc        1 MOL      0.105403
      6 H3          1.7180   -1.8140    6.7630 hc        1 MOL      0.105403
      7 N1          1.6010   -3.1900    4.1750 n         1 MOL     -0.618791
      8 C3          2.1310   -3.2950    2.8370 c3        1 MOL      0.191539
      9 C4          1.9000   -4.5980    2.1160 c         1 MOL      0.422674
     10 O2          2.1390   -5.6890    2.6580 o         1 MOL     -0.569932
     11 C5          3.6010   -3.0420    2.9150 c3        1 MOL     -0.153866
     12 C6          4.2640   -2.9490    1.5370 c         1 MOL      0.612147
     13 O3          3.7510   -2.3480    0.5210 o         1 MOL     -0.616906
     14 O4          5.2970   -3.6280    1.3830 o         1 MOL     -0.616906
     15 H4          1.8140   -3.9870    4.7450 hn        1 MOL      0.325595
     16 H5          1.8460   -2.4540    2.2040 h1        1 MOL     -0.001804
     17 H6          4.0520   -3.9020    3.4160 hc        1 MOL      0.012404
     18 H7          3.7750   -2.2040    3.5910 hc        1 MOL      0.012404
     19 N2          1.5310   -4.4560    0.8370 n         1 MOL      0.093758
     20 C7          1.5540   -5.6390   -0.0730 c3        1 MOL     -0.212863
     21 C8          2.2290   -5.3660   -1.4030 c         1 MOL      0.501438
     22 O5          2.3140   -6.3180   -2.1330 o         1 MOL     -0.579093
     23 C9          0.1030   -6.1680   -0.2920 c3        1 MOL      0.290521
     24 C10        -0.7530   -5.2000   -1.0820 c3        1 MOL     -0.043280
     25 C11        -0.5500   -6.6490    1.0160 c3        1 MOL     -0.224705
     26 C12        -2.2330   -5.5750   -1.0560 c3        1 MOL     -0.324503
     27 H8          1.2810   -3.5840    0.3830 hn        1 MOL     -0.138556
     28 H9          2.0350   -6.4600    0.4490 h1        1 MOL      0.104515
     29 H10         0.2080   -7.0000   -0.9890 hc        1 MOL     -0.036669
     30 H11        -0.4350   -5.2060   -2.1180 hc        1 MOL      0.039648
     31 H12        -0.6330   -4.2330   -0.5890 hc        1 MOL      0.039648
     32 H13         0.1380   -7.2430    1.6200 hc        1 MOL      0.031680
     33 H14        -1.0030   -5.8640    1.6220 hc        1 MOL      0.031680
     34 H15        -1.2870   -7.3840    0.7240 hc        1 MOL      0.031680
     35 H16        -2.8020   -4.8400   -1.6330 hc        1 MOL      0.092695
     36 H17        -2.3600   -6.6140   -1.3400 hc        1 MOL      0.092695
     37 H18        -2.5950   -5.4240   -0.0400 hc        1 MOL      0.092695
     38 N3          2.7770   -4.1980   -1.6960 n         1 MOL     -0.223434
     39 C13         3.3250   -3.9500   -3.0770 c3        1 MOL     -0.065585
     40 C14         4.7270   -3.3230   -3.0420 c         1 MOL      0.540463
     41 O6          5.4760   -3.4130   -3.9980 o         1 MOL     -0.616644
     42 C15         2.3200   -3.1220   -3.8190 c3        1 MOL     -0.271026
     43 C16         1.9670   -1.7350   -3.2340 c         1 MOL      0.638163
     44 O7          2.6530   -1.1240   -2.3670 o         1 MOL     -0.673698
     45 O8          1.0880   -1.0450   -3.8540 o         1 MOL     -0.673698
     46 H19         2.8640   -3.4840   -0.9820 hn        1 MOL      0.255729
     47 H20         3.3980   -4.9220   -3.5550 h1        1 MOL      0.109448
     48 H21         1.4590   -3.7700   -3.9600 hc        1 MOL      0.103021
     49 H22         2.6830   -2.8980   -4.8200 hc        1 MOL      0.103021
     50 N4          5.1390   -2.7800   -1.9270 n         1 MOL     -0.114926
     51 C17         6.5180   -2.4120   -1.7100 c3        1 MOL     -0.160590
     52 C18         6.9860   -1.0060   -1.8950 c         1 MOL      0.616681
     53 O9          8.0450   -0.6090   -1.3660 o         1 MOL     -0.634562
     54 H23         4.5050   -2.9460   -1.1610 hn        1 MOL      0.014438
     55 H24         7.2150   -2.9880   -2.3150 h1        1 MOL      0.087278
     56 H25         6.8470   -2.6330   -0.6870 h1        1 MOL      0.087278
     57 N5          6.1390   -0.1670   -2.5270 n         1 MOL     -0.497733
     58 C19         6.3960    1.2100   -2.9090 c3        1 MOL      0.091949
     59 C20         6.7920    2.2060   -1.8460 c         1 MOL      0.326188
     60 O10         7.1830    3.3490   -2.1150 o         1 MOL     -0.547072
     61 C21         5.1180    1.7340   -3.5470 c3        1 MOL     -0.278091
     62 C22         3.8690    1.8720   -2.6360 c         1 MOL      0.768139
     63 O11         3.9440    1.5500   -1.4130 o         1 MOL     -0.667199
     64 O12         2.8510    2.3230   -3.1590 o         1 MOL     -0.667199
     65 H26         5.2790   -0.5420   -2.8890 hn        1 MOL      0.306592
     66 H27         7.1370    1.1630   -3.7150 h1        1 MOL      0.079138
     67 H28         4.9480    1.0710   -4.4020 hc        1 MOL      0.078043
     68 H29         5.3620    2.7060   -3.9720 hc        1 MOL      0.078043
     69 N6          6.7100    1.8420   -0.5790 n         1 MOL     -0.001864
     70 C23         7.1870    2.7880    0.4620 c3        1 MOL     -0.290903
     71 C24         6.0510    3.6560    0.9490 c         1 MOL      0.626051
     72 O13         6.3050    4.6540    1.6030 o         1 MOL     -0.601720
     73 H30         6.3430    0.9620   -0.2590 hn        1 MOL      0.210287
     74 H31         8.0280    3.4380    0.2120 h1        1 MOL      0.106988
     75 H32         7.4230    2.2090    1.3600 h1        1 MOL      0.106988
     76 N7          4.7540    3.2920    0.7170 n         1 MOL     -0.445801
     77 C25         3.5530    4.1330    1.2480 c3        1 MOL     -0.099455
     78 C26         2.3120    3.2470    1.4920 c         1 MOL      0.620444
     79 O14         2.1270    2.3560    0.6730 o         1 MOL     -0.569391
     80 C27         3.1140    5.2690    0.1750 c3        1 MOL      0.006181
     81 C28         4.0650    6.4410   -0.0360 c3        1 MOL     -0.280727
     82 C29         3.4300    7.5630   -0.8210 c         1 MOL      0.674439
     83 N8          3.3110    7.4610   -2.1400 n         1 MOL     -0.853393
     84 O15         2.9950    8.5470   -0.2650 o         1 MOL     -0.584991
     85 H33         4.6380    2.5570    0.0370 hn        1 MOL      0.291351
     86 H34         3.8120    4.6720    2.1580 h1        1 MOL      0.089696
     87 H35         2.2380    5.6810    0.6730 hc        1 MOL      0.060795
     88 H36         2.8080    4.8840   -0.7960 hc        1 MOL      0.060795
     89 H37         5.0230    6.1140   -0.4420 hc        1 MOL      0.106460
     90 H38         4.2550    6.8880    0.9470 hc        1 MOL      0.106460
     91 H39         3.5270    6.5710   -2.5490 hn        1 MOL      0.385035
     92 H40         2.8480    8.1980   -2.6550 hn        1 MOL      0.385035
     93 N9          1.4620    3.4930    2.5030 n         1 MOL     -0.616648
     94 C30         0.1910    2.6990    2.7360 c3        1 MOL     -0.008697
     95 C31        -0.8330    3.2830    1.7270 c         1 MOL      0.622217
     96 O16        -1.0740    4.4710    1.7480 o         1 MOL     -0.600870
     97 C32        -0.3150    2.7480    4.1890 c3        1 MOL      0.097054
     98 C33        -1.4640    1.7820    4.3320 c3        1 MOL     -0.082840
     99 C34         0.8600    2.3580    5.1550 c3        1 MOL     -0.082840
    100 H41         1.5860    4.3380    3.0400 hn        1 MOL      0.331446
    101 H42         0.3760    1.6290    2.6100 h1        1 MOL      0.171620
    102 H43        -0.8230    3.6780    4.4340 hc        1 MOL     -0.003500
    103 H44        -1.9650    1.9380    5.2920 hc        1 MOL      0.002572
    104 H45        -2.2590    1.9370    3.5990 hc        1 MOL      0.002572
    105 H46        -1.0470    0.7810    4.2120 hc        1 MOL      0.002572
    106 H47         1.3630    1.4920    4.7140 hc        1 MOL      0.002572
    107 H48         1.4580    3.2460    5.3820 hc        1 MOL      0.002572
    108 H49         0.5150    2.1270    6.1680 hc        1 MOL      0.002572
    109 N10        -1.3600    2.4650    0.8370 n         1 MOL     -0.371480
    110 C35        -2.5570    2.8430    0.1190 c3        1 MOL      0.262547
    111 C36        -3.8800    2.4930    0.7990 c         1 MOL      0.275749
    112 O17        -3.9090    1.7020    1.7180 o         1 MOL     -0.298058
    113 C37        -2.5410    2.4750   -1.4080 c3        1 MOL     -0.291911
    114 C38        -2.8510    1.0350   -1.8320 c         1 MOL      0.787730
    115 N11        -1.8180    0.3160   -2.0830 n         1 MOL     -0.720735
    116 O18        -4.0270    0.6570   -2.0010 o         1 MOL     -0.657110
    117 H50        -1.0220    1.5080    0.7650 hn        1 MOL      0.177435
    118 H51        -2.6460    3.9370    0.1390 h1        1 MOL      0.028710
    119 H52        -1.6330    2.8770   -1.8700 hc        1 MOL      0.066034
    120 H53        -3.3020    3.0250   -1.9570 hc        1 MOL      0.066034
    121 H54        -0.9270    0.6880   -1.7840 hn        1 MOL      0.366196
    122 H55        -1.9210   -0.5950   -2.5140 hn        1 MOL      0.366196
    123 N12        -5.0400    3.0710    0.3360 n         1 MOL     -0.365873
    124 C39        -6.3440    2.7890    0.9560 c3        1 MOL      0.045556
    125 C40        -6.6910    1.2260    0.9600 c         1 MOL      0.309961
    126 O19        -7.1330    0.6500    1.9960 o         1 MOL     -0.582557
    127 C41        -7.4830    3.5900    0.2440 c3        1 MOL     -0.182981
    128 C42        -7.7860    3.1110   -1.1440 ca        1 MOL     -0.018278
    129 C43        -8.6260    2.0260   -1.4060 ca        1 MOL     -0.142373
    130 C44        -7.1670    3.8530   -2.1600 ca        1 MOL     -0.142373
    131 C45        -8.7790    1.5890   -2.7710 ca        1 MOL     -0.355322
    132 C46        -7.3530    3.4810   -3.5280 ca        1 MOL     -0.355322
    133 C47        -8.1090    2.3390   -3.7830 ca        1 MOL      0.487783
    134 O20        -8.2780    2.0210   -5.1190 oh        1 MOL     -0.573132
    135 H56        -4.9780    3.7680   -0.3980 hn        1 MOL      0.239102
    136 H57        -6.3340    3.1520    1.9830 h1        1 MOL      0.062672
    137 H58        -7.2690    4.6690    0.1910 hc        1 MOL      0.076679
    138 H59        -8.4110    3.5830    0.8160 hc        1 MOL      0.076679
    139 H60        -9.0800    1.5310   -0.5610 ha        1 MOL      0.135899
    140 H61        -6.5010    4.6850   -1.9980 ha        1 MOL      0.135899
    141 H62        -9.4850    0.7850   -2.8930 ha        1 MOL      0.178244
    142 H63        -6.7880    3.9090   -4.3350 ha        1 MOL      0.178244
    143 H64        -8.6240    1.1330   -5.2620 ho        1 MOL      0.403579
    144 N13        -6.2410    0.5130   -0.0670 n         1 MOL      0.125605
    145 C48        -6.4120   -0.9230   -0.2280 c3        1 MOL     -0.075815
    146 C49        -5.4180   -1.8180    0.5360 c         1 MOL      0.477322
    147 O21        -5.5960   -3.0230    0.6140 o         1 MOL     -0.515783
    148 C50        -6.4320   -1.2560   -1.6920 c3        1 MOL      0.228314
    149 C51        -7.1480   -2.5780   -2.1250 c3        1 MOL     -0.150835
    150 C52        -7.0310   -2.8190   -3.6480 c         1 MOL      0.622806
    151 O22        -7.3940   -1.8620   -4.4060 o         1 MOL     -0.706927
    152 O23        -6.5110   -3.8580   -4.0810 o         1 MOL     -0.706927
    153 H65        -5.7670    1.0000   -0.8140 hn        1 MOL      0.170175
    154 H66        -7.3760   -1.1480    0.2380 h1        1 MOL      0.039258
    155 H67        -5.3750   -1.2580   -1.9300 hc        1 MOL     -0.030043
    156 H68        -6.9390   -0.4680   -2.2550 hc        1 MOL     -0.030043
    157 H69        -8.1920   -2.5120   -1.8230 hc        1 MOL     -0.020920
    158 H70        -6.7710   -3.3820   -1.4940 hc        1 MOL     -0.020920
    159 N14        -4.3710   -1.2380    1.1530 n         1 MOL     -0.441418
    160 C53        -3.6690   -1.8700    2.3090 c3        1 MOL      0.015008
    161 C54        -4.4070   -1.5150    3.6110 c         1 MOL      0.544767
    162 O24        -4.4370   -2.4000    4.4280 o         1 MOL     -0.587186
    163 C55        -2.1900   -1.3810    2.1940 c3        1 MOL      0.107150
    164 C56        -1.4770   -1.8840    0.9110 c3        1 MOL     -0.071354
    165 C57        -0.1130   -1.2090    0.6400 c         1 MOL      0.367459
    166 O25         0.0960   -0.0320    0.9470 o         1 MOL     -0.510268
    167 O26         0.8250   -1.9040    0.2080 o         1 MOL     -0.510268
    168 H71        -4.4020   -0.2360    1.0640 hn        1 MOL      0.124888
    169 H72        -3.5310   -2.9520    2.2800 h1        1 MOL      0.082331
    170 H73        -1.7770   -1.7570    3.1350 hc        1 MOL     -0.045842
    171 H74        -2.2740   -0.2980    2.2980 hc        1 MOL     -0.045842
    172 H75        -2.0400   -1.5530    0.0340 hc        1 MOL      0.080239
    173 H76        -1.2390   -2.9490    0.9190 hc        1 MOL      0.080239
    174 N15        -4.9560   -0.3150    3.7850 n         1 MOL     -0.144772
    175 C58        -5.4930    0.0550    5.1210 c3        1 MOL     -0.158740
    176 H77        -6.2930    0.7860    5.0000 h1        1 MOL      0.067031
    177 H78        -5.8860   -0.8340    5.6140 h1        1 MOL      0.067031
    178 H79        -4.6970    0.4850    5.7270 h1        1 MOL      0.067031
    179 H80        -4.7500    0.4440    3.1540 hn        1 MOL      0.172773
    180 Ca1         2.6760   -0.0500   -0.0120 Ca        1 MOL      1.633666
    181 O27         2.6480    0.2270    2.6640 oh        1 MOL     -0.852829
    182 H81         1.9460   -0.1150    3.2060 ho        1 MOL      0.408193
    183 H82         3.4200    0.2010    3.2260 ho        1 MOL      0.408193
    184 O28         5.1850    0.0570    1.2000 oh        1 MOL     -0.852829
    185 H83         5.8450   -0.6340    1.2730 ho        1 MOL      0.408193
    186 H84         5.0370    0.3370    2.1000 ho        1 MOL      0.408193
    187 O29         0.9210    1.0750   -1.8530 oh        1 MOL     -0.852829
    188 H85         0.9900    0.3550   -2.4830 ho        1 MOL      0.408193
    189 H86         1.6660    1.6420   -2.0610 ho        1 MOL      0.408193
@<TRIPOS>BOND
     1    1    2 1   
     2    1    4 1   
     3    1    5 1   
     4    1    6 1   
     5    2    3 2   
     6    2    7 1   
     7    7    8 1   
     8    7   15 1   
     9    8    9 1   
    10    8   11 1   
    11    8   16 1   
    12    9   10 2   
    13    9   19 1   
    14   11   12 1   
    15   11   17 1   
    16   11   18 1   
    17   12   13 1   
    18   12   14 1   
    19   19   20 1   
    20   19   27 1   
    21   20   21 1   
    22   20   23 1   
    23   20   28 1   
    24   21   22 2   
    25   21   38 1   
    26   23   24 1   
    27   23   25 1   
    28   23   29 1   
    29   24   26 1   
    30   24   30 1   
    31   24   31 1   
    32   25   32 1   
    33   25   33 1   
    34   25   34 1   
    35   26   35 1   
    36   26   36 1   
    37   26   37 1   
    38   38   39 1   
    39   38   46 1   
    40   39   40 1   
    41   39   42 1   
    42   39   47 1   
    43   40   41 2   
    44   40   50 1   
    45   42   43 1   
    46   42   48 1   
    47   42   49 1   
    48   43   44 1   
    49   43   45 1   
    50   50   51 1   
    51   50   54 1   
    52   51   52 1   
    53   51   55 1   
    54   51   56 1   
    55   52   53 2   
    56   52   57 1   
    57   57   58 1   
    58   57   65 1   
    59   58   59 1   
    60   58   61 1   
    61   58   66 1   
    62   59   60 2   
    63   59   69 1   
    64   61   62 1   
    65   61   67 1   
    66   61   68 1   
    67   62   63 1   
    68   62   64 1   
    69   69   70 1   
    70   69   73 1   
    71   70   71 1   
    72   70   74 1   
    73   70   75 1   
    74   71   72 2   
    75   71   76 1   
    76   76   77 1   
    77   76   85 1   
    78   77   78 1   
    79   77   80 1   
    80   77   86 1   
    81   78   79 2   
    82   78   93 1   
    83   80   81 1   
    84   80   87 1   
    85   80   88 1   
    86   81   82 1   
    87   81   89 1   
    88   81   90 1   
    89   82   83 1   
    90   82   84 2   
    91   83   91 1   
    92   83   92 1   
    93   93   94 1   
    94   93  100 1   
    95   94   95 1   
    96   94   97 1   
    97   94  101 1   
    98   95   96 2   
    99   95  109 1   
   100   97   98 1   
   101   97   99 1   
   102   97  102 1   
   103   98  103 1   
   104   98  104 1   
   105   98  105 1   
   106   99  106 1   
   107   99  107 1   
   108   99  108 1   
   109  109  110 1   
   110  109  117 1   
   111  110  111 1   
   112  110  113 1   
   113  110  118 1   
   114  111  112 2   
   115  111  123 1   
   116  113  114 1   
   117  113  119 1   
   118  113  120 1   
   119  114  115 1   
   120  114  116 2   
   121  115  121 1   
   122  115  122 1   
   123  123  124 1   
   124  123  135 1   
   125  124  125 1   
   126  124  127 1   
   127  124  136 1   
   128  125  126 2   
   129  125  144 1   
   130  127  128 1   
   131  127  137 1   
   132  127  138 1   
   133  128  129 ar  
   134  128  130 ar  
   135  129  131 ar  
   136  129  139 1   
   137  130  132 ar  
   138  130  140 1   
   139  131  133 ar  
   140  131  141 1   
   141  132  133 ar  
   142  132  142 1   
   143  133  134 1   
   144  134  143 1   
   145  144  145 1   
   146  144  153 1   
   147  145  146 1   
   148  145  148 1   
   149  145  154 1   
   150  146  147 2   
   151  146  159 1   
   152  148  149 1   
   153  148  155 1   
   154  148  156 1   
   155  149  150 1   
   156  149  157 1   
   157  149  158 1   
   158  150  151 1   
   159  150  152 1   
   160  159  160 1   
   161  159  168 1   
   162  160  161 1   
   163  160  163 1   
   164  160  169 1   
   165  161  162 2   
   166  161  174 1   
   167  163  164 1   
   168  163  170 1   
   169  163  171 1   
   170  164  165 1   
   171  164  172 1   
   172  164  173 1   
   173  165  166 1   
   174  165  167 1   
   175  174  175 1   
   176  174  179 1   
   177  175  176 1   
   178  175  177 1   
   179  175  178 1   
   180  181  182 1   
   181  181  183 1   
   182  184  185 1   
   183  184  186 1   
   184  187  188 1   
   185  187  189 1   
@<TRIPOS>SUBSTRUCTURE
     1 MOL         1 TEMP              0 ****  ****    0 ROOT
