@<TRIPOS>MOLECULE
MOL
  189   185     1     0     0
SMALL
resp


@<TRIPOS>ATOM
      1 C1          0.4940   -4.2620    5.5260 c3        1 MOL     -0.289827
      2 C2          1.2370   -3.6690    4.3350 c         1 MOL      0.713440
      3 O1          1.5630   -2.4750    4.2700 o         1 MOL     -0.605229
      4 H1         -0.5810   -4.1800    5.3610 hc        1 MOL      0.073187
      5 H2          0.7650   -5.3120    5.6380 hc        1 MOL      0.073187
      6 H3          0.7640   -3.7180    6.4310 hc        1 MOL      0.073187
      7 N1          1.4460   -4.5580    3.3050 n         1 MOL     -0.653523
      8 C3          2.0550   -4.1270    1.9990 c3        1 MOL      0.361408
      9 C4          1.8490   -5.1070    0.8100 c         1 MOL      0.453442
     10 O2          1.8710   -6.3690    1.0010 o         1 MOL     -0.583220
     11 C5          3.5400   -3.9890    2.3340 c3        1 MOL     -0.428184
     12 C6          4.2920   -3.3670    1.1120 c         1 MOL      0.710097
     13 O3          5.3650   -3.8290    0.7090 o         1 MOL     -0.665763
     14 O4          3.7490   -2.4170    0.4610 o         1 MOL     -0.665763
     15 H4          1.1700   -5.5230    3.4150 hn        1 MOL      0.316860
     16 H5          1.6410   -3.1540    1.7450 h1        1 MOL     -0.026883
     17 H6          3.9770   -4.9590    2.5440 hc        1 MOL      0.108914
     18 H7          3.7540   -3.2860    3.1370 hc        1 MOL      0.108914
     19 N2          1.8060   -4.5130   -0.3910 n         1 MOL     -0.149423
     20 C7          1.5400   -5.1690   -1.6920 c3        1 MOL     -0.072004
     21 C8          2.6490   -4.8140   -2.6890 c         1 MOL      0.640980
     22 O5          3.1170   -5.7380   -3.2790 o         1 MOL     -0.602941
     23 C9          0.1300   -4.7910   -2.2240 c3        1 MOL      0.192962
     24 C10        -0.8460   -5.4990   -1.2860 c3        1 MOL      0.121566
     25 C11        -0.1640   -5.4690   -3.5820 c3        1 MOL     -0.367516
     26 C12        -2.3230   -5.0450   -1.4170 c3        1 MOL     -0.276303
     27 H8          1.8590   -3.4980   -0.3820 hn        1 MOL      0.074458
     28 H9          1.5900   -6.2510   -1.5940 h1        1 MOL      0.074046
     29 H10        -0.0550   -3.7110   -2.2040 hc        1 MOL      0.010686
     30 H11        -0.5450   -5.2550   -0.2750 hc        1 MOL     -0.024209
     31 H12        -0.7900   -6.5860   -1.3100 hc        1 MOL     -0.024209
     32 H13        -1.1720   -5.2560   -3.9450 hc        1 MOL      0.075563
     33 H14         0.5050   -4.9290   -4.2590 hc        1 MOL      0.075563
     34 H15         0.0350   -6.5410   -3.6540 hc        1 MOL      0.075563
     35 H16        -2.5180   -4.0690   -0.9630 hc        1 MOL      0.064025
     36 H17        -2.6660   -5.1200   -2.4520 hc        1 MOL      0.064025
     37 H18        -3.0490   -5.7050   -0.9550 hc        1 MOL      0.064025
     38 N3          3.0900   -3.5730   -2.7280 n         1 MOL     -0.381726
     39 C13         3.9280   -2.9970   -3.8000 c3        1 MOL      0.099308
     40 C14         5.2870   -2.4440   -3.2650 c         1 MOL      0.313144
     41 O6          6.1680   -2.1040   -4.0420 o         1 MOL     -0.563002
     42 C15         3.1270   -1.7720   -4.4060 c3        1 MOL     -0.240958
     43 C16         2.6910   -0.7110   -3.2850 c         1 MOL      0.709700
     44 O7          3.4130   -0.4520   -2.2770 o         1 MOL     -0.660179
     45 O8          1.6440   -0.0980   -3.5100 o         1 MOL     -0.660179
     46 H19         2.7590   -2.8830   -2.0660 hn        1 MOL      0.199370
     47 H20         4.0980   -3.7430   -4.5720 h1        1 MOL      0.078557
     48 H21         2.2900   -2.1630   -4.9760 hc        1 MOL      0.061062
     49 H22         3.7060   -1.3270   -5.2130 hc        1 MOL      0.061062
     50 N4          5.5640   -2.3610   -1.9600 n         1 MOL      0.048847
     51 C17         6.8020   -1.8410   -1.4900 c3        1 MOL     -0.315889
     52 C18         7.0960   -0.3510   -1.5700 c         1 MOL      0.566163
     53 O9          8.1340    0.1440   -1.1150 o         1 MOL     -0.648327
     54 H23         4.9700   -2.7480   -1.2400 hn        1 MOL      0.074973
     55 H24         7.6390   -2.3420   -1.9740 h1        1 MOL      0.113142
     56 H25         6.7450   -2.0910   -0.4260 h1        1 MOL      0.113142
     57 N5          6.1440    0.4750   -2.0170 n         1 MOL     -0.177801
     58 C19         6.4650    1.8770   -2.3120 c3        1 MOL     -0.033241
     59 C20         6.8530    2.7670   -1.0760 c         1 MOL      0.385368
     60 O10         7.1970    3.9550   -1.1740 o         1 MOL     -0.563451
     61 C21         5.3050    2.5110   -3.0160 c3        1 MOL     -0.202093
     62 C22         4.0110    2.5950   -2.2150 c         1 MOL      0.857657
     63 O11         4.0030    2.1270   -1.0270 o         1 MOL     -0.755101
     64 O12         3.0350    3.2290   -2.6500 o         1 MOL     -0.755101
     65 H26         5.2180    0.0730   -2.0620 hn        1 MOL      0.145635
     66 H27         7.2330    1.8350   -3.0760 h1        1 MOL      0.082991
     67 H28         5.0650    1.9430   -3.9070 hc        1 MOL      0.050679
     68 H29         5.4350    3.5420   -3.3500 hc        1 MOL      0.050679
     69 N6          6.6160    2.2360    0.1310 n         1 MOL     -0.028205
     70 C23         7.0070    2.8490    1.4450 c3        1 MOL     -0.222126
     71 C24         5.8840    3.6380    2.0980 c         1 MOL      0.595179
     72 O13         6.1960    4.3290    3.1010 o         1 MOL     -0.589196
     73 H30         6.2000    1.3150    0.1180 hn        1 MOL      0.173024
     74 H31         7.8370    3.5060    1.1810 h1        1 MOL      0.094394
     75 H32         7.5160    2.1590    2.1120 h1        1 MOL      0.094394
     76 N7          4.6420    3.5720    1.5720 n         1 MOL     -0.362613
     77 C25         3.3920    4.1650    2.0990 c3        1 MOL     -0.011188
     78 C26         2.1460    3.2860    1.9710 c         1 MOL      0.507427
     79 O14         2.1940    2.2920    1.2530 o         1 MOL     -0.614370
     80 C27         3.1080    5.6220    1.5590 c3        1 MOL     -0.084511
     81 C28         2.9830    5.7920   -0.0170 c3        1 MOL      0.019569
     82 C29         2.9900    7.2580   -0.5640 c         1 MOL      0.636692
     83 N8          2.5040    7.5450   -1.7800 n         1 MOL     -0.832776
     84 O15         3.1500    8.1270    0.2270 o         1 MOL     -0.575517
     85 H33         4.5030    3.0520    0.7090 hn        1 MOL      0.217050
     86 H34         3.4550    4.3600    3.1700 h1        1 MOL      0.037045
     87 H35         3.9020    6.3050    1.8640 hc        1 MOL      0.033531
     88 H36         2.1800    5.8850    2.0630 hc        1 MOL      0.033531
     89 H37         2.0620    5.3010   -0.3350 hc        1 MOL      0.035580
     90 H38         3.8790    5.3990   -0.4870 hc        1 MOL      0.035580
     91 H39         2.2670    6.7750   -2.3990 hn        1 MOL      0.368340
     92 H40         2.3910    8.5190   -2.0220 hn        1 MOL      0.368340
     93 N9          1.0240    3.5870    2.5910 n         1 MOL     -0.280696
     94 C30        -0.1900    2.7560    2.6810 c3        1 MOL     -0.225036
     95 C31        -1.1430    3.1090    1.5750 c         1 MOL      0.732474
     96 O16        -1.4580    4.2850    1.4010 o         1 MOL     -0.627068
     97 C32        -0.7370    2.8360    4.1330 c3        1 MOL      0.140624
     98 C33        -1.9120    1.8800    4.2480 c3        1 MOL     -0.305728
     99 C34         0.2850    2.3670    5.2190 c3        1 MOL     -0.305728
    100 H41         0.9930    4.4280    3.1540 hn        1 MOL      0.268101
    101 H42         0.1670    1.7280    2.5790 h1        1 MOL      0.154789
    102 H43        -1.0920    3.8190    4.4570 hc        1 MOL      0.008614
    103 H44        -1.4170    0.9240    4.0780 hc        1 MOL      0.077701
    104 H45        -2.2980    1.7830    5.2650 hc        1 MOL      0.077701
    105 H46        -2.6860    1.9900    3.4910 hc        1 MOL      0.077701
    106 H47         1.2320    2.8990    5.1510 hc        1 MOL      0.077701
    107 H48        -0.0430    2.6200    6.2200 hc        1 MOL      0.077701
    108 H49         0.4700    1.2930    5.2590 hc        1 MOL      0.077701
    109 N10        -1.6670    2.1060    0.9010 n         1 MOL     -0.344422
    110 C35        -2.7020    2.0710   -0.1160 c3        1 MOL      0.040098
    111 C36        -4.0040    1.6330    0.5120 c         1 MOL      0.420471
    112 O17        -3.9880    0.8640    1.4840 o         1 MOL     -0.356922
    113 C37        -2.3040    1.0000   -1.1410 c3        1 MOL     -0.309138
    114 C38        -3.3920    0.9000   -2.2120 c         1 MOL      0.685032
    115 N11        -3.7710    1.9430   -2.8830 n         1 MOL     -0.794778
    116 O18        -3.9530   -0.1760   -2.3680 o         1 MOL     -0.572113
    117 H50        -1.3740    1.2310    1.3120 hn        1 MOL      0.131646
    118 H51        -2.8270    3.0270   -0.6290 h1        1 MOL      0.066057
    119 H52        -2.1250    0.0820   -0.5850 hc        1 MOL      0.142571
    120 H53        -1.4170    1.3800   -1.6360 hc        1 MOL      0.142571
    121 H54        -3.3910    2.8610   -2.7050 hn        1 MOL      0.363952
    122 H55        -4.5140    1.7280   -3.5350 hn        1 MOL      0.363952
    123 N12        -5.1860    2.0510   -0.0090 n         1 MOL     -0.468015
    124 C39        -6.5360    1.4040    0.1600 c3        1 MOL      0.197697
    125 C40        -6.5450   -0.0620    0.6870 c         1 MOL      0.282376
    126 O19        -7.1740   -0.3770    1.6630 o         1 MOL     -0.518659
    127 C41        -7.3050    1.3380   -1.1930 c3        1 MOL     -0.026011
    128 C42        -7.9160    2.6510   -1.7820 ca        1 MOL      0.225449
    129 C43        -8.2430    3.6430   -0.8980 ca        1 MOL     -0.300657
    130 C44        -8.1280    2.8350   -3.1860 ca        1 MOL     -0.300657
    131 C45        -8.7820    4.8520   -1.3560 ca        1 MOL     -0.160612
    132 C46        -8.6770    4.0230   -3.6830 ca        1 MOL     -0.160612
    133 C47        -8.8780    5.0560   -2.7440 ca        1 MOL      0.233927
    134 O20        -9.3690    6.1780   -3.3700 oh        1 MOL     -0.511909
    135 H56        -5.2070    2.8160   -0.6770 hn        1 MOL      0.223562
    136 H57        -7.1010    1.9740    0.8920 h1        1 MOL      0.012917
    137 H58        -8.1120    0.6140   -1.1140 hc        1 MOL     -0.001933
    138 H59        -6.6720    0.8930   -1.9620 hc        1 MOL     -0.001933
    139 H60        -8.1710    3.5340    0.1710 ha        1 MOL      0.173423
    140 H61        -8.0220    2.0210   -3.8800 ha        1 MOL      0.173423
    141 H62        -9.0440    5.6080   -0.6320 ha        1 MOL      0.129785
    142 H63        -8.9540    4.1850   -4.7150 ha        1 MOL      0.129785
    143 H64        -9.1970    6.0710   -4.3000 ho        1 MOL      0.353578
    144 N13        -6.0780   -0.9830   -0.1240 n         1 MOL      0.010738
    145 C48        -6.0990   -2.3690    0.1730 c3        1 MOL     -0.207288
    146 C49        -5.0990   -2.8320    1.2620 c         1 MOL      0.306514
    147 O21        -5.3120   -3.7530    2.0500 o         1 MOL     -0.500739
    148 C50        -5.7470   -3.1340   -1.1370 c3        1 MOL     -0.006709
    149 C51        -6.5290   -2.6500   -2.3550 c3        1 MOL     -0.075448
    150 C52        -8.0920   -2.7770   -2.2360 c         1 MOL      0.659213
    151 O22        -8.6090   -3.8560   -1.9440 o         1 MOL     -0.713757
    152 O23        -8.7860   -1.6940   -2.2910 o         1 MOL     -0.713757
    153 H65        -5.6940   -0.6960   -1.0190 hn        1 MOL      0.338337
    154 H66        -7.1170   -2.6110    0.4830 h1        1 MOL      0.169417
    155 H67        -5.8250   -4.2080   -1.0330 hc        1 MOL      0.036313
    156 H68        -4.6850   -2.9410   -1.2930 hc        1 MOL      0.036313
    157 H69        -6.3000   -3.2570   -3.2250 hc        1 MOL     -0.045181
    158 H70        -6.3620   -1.6040   -2.6120 hc        1 MOL     -0.045181
    159 N14        -4.0120   -2.0480    1.4490 n         1 MOL      0.061123
    160 C53        -3.0960   -2.3110    2.5800 c3        1 MOL     -0.100468
    161 C54        -3.8130   -1.8350    3.9250 c         1 MOL      0.422977
    162 O24        -3.7720   -2.6870    4.8330 o         1 MOL     -0.562767
    163 C55        -1.7180   -1.6110    2.2660 c3        1 MOL     -0.011259
    164 C56        -1.0070   -2.1100    1.0230 c3        1 MOL     -0.065719
    165 C57         0.2680   -1.3440    0.7130 c         1 MOL      0.687339
    166 O25         0.9440   -1.6920   -0.2840 o         1 MOL     -0.654086
    167 O26         0.6260   -0.3780    1.4180 o         1 MOL     -0.654086
    168 H71        -3.9540   -1.2370    0.8520 hn        1 MOL     -0.014271
    169 H72        -2.8800   -3.3570    2.7580 h1        1 MOL      0.095359
    170 H73        -1.1380   -1.6910    3.1900 hc        1 MOL      0.043691
    171 H74        -1.8820   -0.5470    2.0520 hc        1 MOL      0.043691
    172 H75        -1.6380   -2.0610    0.1360 hc        1 MOL     -0.022040
    173 H76        -0.7650   -3.1730    1.0160 hc        1 MOL     -0.022040
    174 N15        -4.3900   -0.6840    3.9860 n         1 MOL     -0.068888
    175 C58        -4.9790   -0.1140    5.1440 c3        1 MOL     -0.197386
    176 H77        -6.0240    0.1220    4.9410 h1        1 MOL      0.070410
    177 H78        -4.9230   -0.8240    5.9680 h1        1 MOL      0.070410
    178 H79        -4.4470    0.7990    5.4120 h1        1 MOL      0.070410
    179 H80        -4.4780   -0.1180    3.1440 hn        1 MOL      0.163174
    180 Ca1         2.9040    0.1760    0.1820 Ca        1 MOL      1.741475
    181 O27         3.1420   -0.5530    2.8490 oh        1 MOL     -0.841099
    182 H81         3.2340    0.1950    3.4360 ho        1 MOL      0.402052
    183 H82         2.5090   -1.1240    3.2900 ho        1 MOL      0.402052
    184 O28         1.1500    1.4660   -1.5920 oh        1 MOL     -0.841099
    185 H83         1.0830    1.1190   -2.4830 ho        1 MOL      0.402052
    186 H84         1.6280    2.2920   -1.6890 ho        1 MOL      0.402052
    187 O29         5.4420   -0.2250    1.1040 oh        1 MOL     -0.841099
    188 H85         6.1430    0.0100    1.7110 ho        1 MOL      0.402052
    189 H86         5.5960   -1.1490    0.9070 ho        1 MOL      0.402052
@<TRIPOS>BOND
     1    1    2 1   
     2    1    4 1   
     3    1    5 1   
     4    1    6 1   
     5    2    3 2   
     6    2    7 1   
     7    7    8 1   
     8    7   15 1   
     9    8    9 1   
    10    8   11 1   
    11    8   16 1   
    12    9   10 2   
    13    9   19 1   
    14   11   12 1   
    15   11   17 1   
    16   11   18 1   
    17   12   13 1   
    18   12   14 1   
    19   19   20 1   
    20   19   27 1   
    21   20   21 1   
    22   20   23 1   
    23   20   28 1   
    24   21   22 2   
    25   21   38 1   
    26   23   24 1   
    27   23   25 1   
    28   23   29 1   
    29   24   26 1   
    30   24   30 1   
    31   24   31 1   
    32   25   32 1   
    33   25   33 1   
    34   25   34 1   
    35   26   35 1   
    36   26   36 1   
    37   26   37 1   
    38   38   39 1   
    39   38   46 1   
    40   39   40 1   
    41   39   42 1   
    42   39   47 1   
    43   40   41 2   
    44   40   50 1   
    45   42   43 1   
    46   42   48 1   
    47   42   49 1   
    48   43   44 1   
    49   43   45 1   
    50   50   51 1   
    51   50   54 1   
    52   51   52 1   
    53   51   55 1   
    54   51   56 1   
    55   52   53 2   
    56   52   57 1   
    57   57   58 1   
    58   57   65 1   
    59   58   59 1   
    60   58   61 1   
    61   58   66 1   
    62   59   60 2   
    63   59   69 1   
    64   61   62 1   
    65   61   67 1   
    66   61   68 1   
    67   62   63 1   
    68   62   64 1   
    69   69   70 1   
    70   69   73 1   
    71   70   71 1   
    72   70   74 1   
    73   70   75 1   
    74   71   72 2   
    75   71   76 1   
    76   76   77 1   
    77   76   85 1   
    78   77   78 1   
    79   77   80 1   
    80   77   86 1   
    81   78   79 2   
    82   78   93 1   
    83   80   81 1   
    84   80   87 1   
    85   80   88 1   
    86   81   82 1   
    87   81   89 1   
    88   81   90 1   
    89   82   83 1   
    90   82   84 2   
    91   83   91 1   
    92   83   92 1   
    93   93   94 1   
    94   93  100 1   
    95   94   95 1   
    96   94   97 1   
    97   94  101 1   
    98   95   96 2   
    99   95  109 1   
   100   97   98 1   
   101   97   99 1   
   102   97  102 1   
   103   98  103 1   
   104   98  104 1   
   105   98  105 1   
   106   99  106 1   
   107   99  107 1   
   108   99  108 1   
   109  109  110 1   
   110  109  117 1   
   111  110  111 1   
   112  110  113 1   
   113  110  118 1   
   114  111  112 2   
   115  111  123 1   
   116  113  114 1   
   117  113  119 1   
   118  113  120 1   
   119  114  115 1   
   120  114  116 2   
   121  115  121 1   
   122  115  122 1   
   123  123  124 1   
   124  123  135 1   
   125  124  125 1   
   126  124  127 1   
   127  124  136 1   
   128  125  126 2   
   129  125  144 1   
   130  127  128 1   
   131  127  137 1   
   132  127  138 1   
   133  128  129 ar  
   134  128  130 ar  
   135  129  131 ar  
   136  129  139 1   
   137  130  132 ar  
   138  130  140 1   
   139  131  133 ar  
   140  131  141 1   
   141  132  133 ar  
   142  132  142 1   
   143  133  134 1   
   144  134  143 1   
   145  144  145 1   
   146  144  153 1   
   147  145  146 1   
   148  145  148 1   
   149  145  154 1   
   150  146  147 2   
   151  146  159 1   
   152  148  149 1   
   153  148  155 1   
   154  148  156 1   
   155  149  150 1   
   156  149  157 1   
   157  149  158 1   
   158  150  151 1   
   159  150  152 1   
   160  159  160 1   
   161  159  168 1   
   162  160  161 1   
   163  160  163 1   
   164  160  169 1   
   165  161  162 2   
   166  161  174 1   
   167  163  164 1   
   168  163  170 1   
   169  163  171 1   
   170  164  165 1   
   171  164  172 1   
   172  164  173 1   
   173  165  166 1   
   174  165  167 1   
   175  174  175 1   
   176  174  179 1   
   177  175  176 1   
   178  175  177 1   
   179  175  178 1   
   180  181  182 1   
   181  181  183 1   
   182  184  185 1   
   183  184  186 1   
   184  187  188 1   
   185  187  189 1   
@<TRIPOS>SUBSTRUCTURE
     1 MOL         1 TEMP              0 ****  ****    0 ROOT
