@<TRIPOS>MOLECULE
MOL
  182   178     1     0     0
SMALL
resp


@<TRIPOS>ATOM
      1 C1         -1.7900   -3.8280    5.4300 c3        1 MOL     -0.342193
      2 C2         -1.3180   -3.3440    4.0510 c         1 MOL      0.594658
      3 O1         -2.1640   -3.0280    3.1730 o         1 MOL     -0.580822
      4 H1         -1.0530   -4.5140    5.8460 hc        1 MOL      0.093617
      5 H2         -1.9070   -2.9730    6.0960 hc        1 MOL      0.093617
      6 H3         -2.7470   -4.3420    5.3270 hc        1 MOL      0.093617
      7 N1         -0.0090   -3.3530    3.8090 n         1 MOL     -0.524067
      8 C3          0.5520   -2.9210    2.5180 c3        1 MOL      0.165929
      9 C4          0.6320   -4.0770    1.5320 c         1 MOL      0.425640
     10 O2          1.3680   -5.0250    1.8220 o         1 MOL     -0.523470
     11 C5          1.9230   -2.3650    2.8600 c3        1 MOL     -0.134182
     12 C6          2.6530   -1.6590    1.6640 c         1 MOL      0.766197
     13 O3          3.7070   -1.1280    1.8980 o         1 MOL     -0.718924
     14 O4          2.2840   -1.6780    0.4850 o         1 MOL     -0.718924
     15 H4          0.6180   -3.6620    4.5370 hn        1 MOL      0.330374
     16 H5         -0.0270   -2.0980    2.1120 h1        1 MOL     -0.054645
     17 H6          2.5150   -3.1210    3.3780 hc        1 MOL      0.038753
     18 H7          1.7760   -1.6180    3.6330 hc        1 MOL      0.038753
     19 N2         -0.1220   -3.9110    0.3840 n         1 MOL     -0.317092
     20 C7         -0.3510   -4.9500   -0.5920 c3        1 MOL      0.001675
     21 C8          0.8330   -5.2180   -1.5500 c         1 MOL      0.501723
     22 O5          0.7360   -6.1450   -2.3780 o         1 MOL     -0.563477
     23 C9         -1.5570   -4.5860   -1.3550 c3        1 MOL     -0.281707
     24 C10        -2.8220   -4.7800   -0.4750 c3        1 MOL     -0.018612
     25 C11        -3.2420   -6.2340   -0.3530 c3        1 MOL     -0.185429
     26 C12        -4.5390   -6.4750    0.4240 c3        1 MOL      0.023678
     27 N3         -4.2500   -6.7150    1.9130 n4        1 MOL     -0.411172
     28 H8         -0.6180   -3.0510    0.2530 hn        1 MOL      0.332040
     29 H9         -0.5740   -5.9430   -0.1810 h1        1 MOL      0.066948
     30 H10        -1.5170   -5.1490   -2.2870 hc        1 MOL      0.121940
     31 H11        -1.5550   -3.5290   -1.6030 hc        1 MOL      0.121940
     32 H12        -3.6320   -4.2210   -0.9420 hc        1 MOL      0.073510
     33 H13        -2.7460   -4.2760    0.4860 hc        1 MOL      0.073510
     34 H14        -2.4250   -6.8300    0.0620 hc        1 MOL      0.095130
     35 H15        -3.3390   -6.6840   -1.3410 hc        1 MOL      0.095130
     36 H16        -5.0190   -7.3360   -0.0380 hx        1 MOL      0.104183
     37 H17        -5.1840   -5.6040    0.3930 hx        1 MOL      0.104183
     38 H18        -4.3380   -5.8670    2.4480 hn        1 MOL      0.343321
     39 H19        -4.8620   -7.4400    2.2650 hn        1 MOL      0.343321
     40 H20        -3.2610   -6.9230    1.9680 hn        1 MOL      0.343321
     41 N4          1.9500   -4.4730   -1.4770 n         1 MOL     -0.290945
     42 C13         3.2320   -4.8130   -2.1610 c3        1 MOL     -0.037556
     43 C14         4.4880   -4.5660   -1.3050 c         1 MOL      0.410320
     44 O6          5.4640   -5.2920   -1.4480 o         1 MOL     -0.529336
     45 C15         3.3050   -4.2200   -3.5570 c3        1 MOL     -0.134208
     46 C16         3.2580   -2.7050   -3.5580 c         1 MOL      0.774974
     47 O7          3.4380   -2.2130   -4.7290 o         1 MOL     -0.726082
     48 O8          3.0620   -1.9400   -2.5560 o         1 MOL     -0.726082
     49 H21         1.8700   -3.6630   -0.8940 hn        1 MOL      0.127045
     50 H22         3.2050   -5.9010   -2.2310 h1        1 MOL      0.122823
     51 H23         2.5590   -4.6970   -4.1990 hc        1 MOL      0.062057
     52 H24         4.1940   -4.6020   -4.0640 hc        1 MOL      0.062057
     53 N5          4.3640   -3.7710   -0.2330 n         1 MOL     -0.096586
     54 C17         5.3360   -3.6470    0.8340 c3        1 MOL     -0.187972
     55 C18         6.2790   -2.4650    0.6560 c         1 MOL      0.616667
     56 O9          7.4140   -2.4670    1.0570 o         1 MOL     -0.578432
     57 H25         3.5340   -3.2030   -0.2290 hn        1 MOL      0.152800
     58 H26         5.9210   -4.5580    0.9200 h1        1 MOL      0.105670
     59 H27         4.7410   -3.4880    1.7280 h1        1 MOL      0.105670
     60 N6          5.8390   -1.3690   -0.0640 n         1 MOL     -0.349460
     61 C19         6.6890   -0.2050   -0.3390 c3        1 MOL      0.095371
     62 C20         6.6000    0.9790    0.6950 c         1 MOL      0.243389
     63 O10         7.1990    2.0680    0.5020 o         1 MOL     -0.464856
     64 C21         6.4000    0.1880   -1.8080 c3        1 MOL     -0.275418
     65 C22         5.0530    0.8710   -1.8880 c         1 MOL      0.797969
     66 N7          4.8900    1.8300   -2.7030 n         1 MOL     -0.717054
     67 O11         4.0440    0.5520   -1.2620 o         1 MOL     -0.752252
     68 H28         4.8520   -1.3370   -0.2660 hn        1 MOL      0.182802
     69 H29         7.7360   -0.4930   -0.2600 h1        1 MOL      0.126665
     70 H30         6.4390   -0.7090   -2.4310 hc        1 MOL      0.087833
     71 H31         7.1400    0.9390   -2.0700 hc        1 MOL      0.087833
     72 H32         5.6240    2.0420   -3.3660 hn        1 MOL      0.351506
     73 H33         4.0380    2.3570   -2.5970 hn        1 MOL      0.351506
     74 N8          5.8840    0.8180    1.8110 n         1 MOL     -0.109789
     75 C23         5.6890    1.9060    2.8330 c3        1 MOL     -0.311549
     76 C24         4.5900    2.9090    2.5700 c         1 MOL      0.622234
     77 O12         4.5160    3.9780    3.2030 o         1 MOL     -0.568451
     78 H34         5.5120   -0.1030    1.9390 hn        1 MOL      0.230128
     79 H35         6.5790    2.5150    3.0010 h1        1 MOL      0.141720
     80 H36         5.5770    1.4430    3.8160 h1        1 MOL      0.141720
     81 N9          3.7030    2.5600    1.6310 n         1 MOL     -0.512845
     82 C25         2.5440    3.3710    1.1720 c3        1 MOL      0.322051
     83 C26         1.3120    2.4560    0.9870 c         1 MOL      0.212653
     84 O13         1.3360    1.3110    0.5470 o         1 MOL     -0.586871
     85 C27         2.9760    4.0310   -0.1090 c3        1 MOL     -0.015236
     86 C28         4.0860    5.0520    0.0340 ca        1 MOL     -0.344651
     87 C29         5.2940    4.8150   -0.6400 ca        1 MOL      0.155657
     88 C30         3.9440    6.2180    0.8550 ca        1 MOL      0.155657
     89 C31         6.2210    5.8770   -0.7350 ca        1 MOL     -0.364339
     90 C32         4.8770    7.2750    0.7390 ca        1 MOL     -0.364339
     91 C33         5.9700    7.0910   -0.1100 ca        1 MOL      0.371697
     92 O14         6.9460    8.0230   -0.2530 oh        1 MOL     -0.485188
     93 H37         3.7980    1.7170    1.0780 hn        1 MOL      0.396806
     94 H38         2.3210    4.1270    1.9180 h1        1 MOL      0.035933
     95 H39         2.0720    4.4930   -0.4950 hc        1 MOL      0.040614
     96 H40         3.2620    3.2320   -0.7860 hc        1 MOL      0.040614
     97 H41         5.5120    3.9190   -1.2150 ha        1 MOL      0.040894
     98 H42         3.0510    6.4440    1.4170 ha        1 MOL      0.040894
     99 H43         7.1590    5.8250   -1.2660 ha        1 MOL      0.158561
    100 H44         4.7890    8.2080    1.2750 ha        1 MOL      0.158561
    101 H45         6.7230    8.8240    0.2270 ho        1 MOL      0.358783
    102 N10         0.2070    3.0850    1.3860 n         1 MOL     -0.414313
    103 C34        -1.1680    2.4830    1.3840 c3        1 MOL     -0.199829
    104 C35        -2.1770    3.5720    0.8800 c         1 MOL      0.460344
    105 O15        -2.4080    4.5960    1.5280 o         1 MOL     -0.496255
    106 C36        -1.4840    1.9750    2.8610 c3        1 MOL      0.116567
    107 C37        -0.6550    0.7070    3.1800 c3        1 MOL     -0.008200
    108 C38        -3.0000    1.6680    3.0600 c3        1 MOL     -0.261339
    109 C39        -0.7650    0.1240    4.5970 c3        1 MOL     -0.291890
    110 H46         0.2380    3.9190    1.9420 hn        1 MOL      0.321160
    111 H47        -1.1670    1.6120    0.7310 h1        1 MOL      0.329626
    112 H48        -1.1410    2.7100    3.5800 hc        1 MOL      0.027965
    113 H49         0.4120    0.7910    2.9900 hc        1 MOL      0.085283
    114 H50        -0.9710   -0.0180    2.4190 hc        1 MOL      0.085283
    115 H51        -3.5630    2.5940    2.9200 hc        1 MOL      0.060172
    116 H52        -3.3880    0.8860    2.4110 hc        1 MOL      0.060172
    117 H53        -3.0970    1.3260    4.0920 hc        1 MOL      0.060172
    118 H54        -0.5060    0.7850    5.4170 hc        1 MOL      0.081010
    119 H55        -1.7340   -0.3530    4.7760 hc        1 MOL      0.081010
    120 H56        -0.0620   -0.6990    4.6860 hc        1 MOL      0.081010
    121 N11        -2.8470    3.2510   -0.2430 n         1 MOL     -0.275318
    122 C40        -3.8470    4.0580   -0.8950 c3        1 MOL      0.006340
    123 C41        -5.1730    3.6050   -0.3960 c         1 MOL      0.401914
    124 O16        -5.3850    2.6170    0.3530 o         1 MOL     -0.316151
    125 C42        -3.7310    3.8380   -2.4250 c3        1 MOL     -0.244210
    126 O17        -4.1210    2.5260   -2.6850 oh        1 MOL     -0.436839
    127 H57        -2.6070    2.3680   -0.6730 hn        1 MOL      0.233104
    128 H58        -3.7060    5.0680   -0.5040 h1        1 MOL      0.097641
    129 H59        -2.7150    3.9910   -2.7710 h1        1 MOL      0.133673
    130 H60        -4.4020    4.5160   -2.9610 h1        1 MOL      0.133673
    131 H61        -3.7040    2.1800   -3.4770 ho        1 MOL      0.399915
    132 N12        -6.2280    4.3400   -0.9010 n         1 MOL     -0.373572
    133 C43        -7.5670    4.1670   -0.4760 c3        1 MOL      0.106594
    134 C44        -8.0840    2.7540   -0.8900 c         1 MOL      0.440016
    135 O18        -8.8930    2.1840   -0.1750 o         1 MOL     -0.522381
    136 C45        -8.4810    5.2520   -1.0760 c3        1 MOL     -0.300776
    137 H62        -6.0850    5.1610   -1.4670 hn        1 MOL      0.262767
    138 H63        -7.5460    4.1920    0.6130 h1        1 MOL      0.079370
    139 H64        -8.1280    6.2510   -0.8140 hc        1 MOL      0.096486
    140 H65        -8.4940    5.0720   -2.1470 hc        1 MOL      0.096486
    141 H66        -9.4700    5.2450   -0.6020 hc        1 MOL      0.096486
    142 N13        -7.5030    2.1780   -1.9340 n         1 MOL     -0.346196
    143 C46        -7.7400    0.7990   -2.3840 c3        1 MOL      0.181676
    144 C47        -7.1430   -0.2540   -1.4130 c         1 MOL      0.284426
    145 O19        -7.5890   -1.3680   -1.2440 o         1 MOL     -0.501372
    146 C48        -7.1160    0.5770   -3.7160 c3        1 MOL     -0.331379
    147 H67        -6.9170    2.7510   -2.5250 hn        1 MOL      0.242163
    148 H68        -8.8110    0.6030   -2.4360 h1        1 MOL      0.069719
    149 H69        -7.3210   -0.4600   -3.9620 hc        1 MOL      0.092415
    150 H70        -7.4620    1.3100   -4.4410 hc        1 MOL      0.092415
    151 H71        -6.0630    0.6650   -3.4230 hc        1 MOL      0.092415
    152 N14        -5.9200   -0.0110   -0.8580 n         1 MOL      0.064305
    153 C49        -5.2980   -0.8510    0.1020 c3        1 MOL     -0.193377
    154 C50        -5.9430   -0.7020    1.4720 c         1 MOL      0.568974
    155 O20        -5.9340   -1.6860    2.1420 o         1 MOL     -0.570392
    156 C51        -3.7730   -0.5480    0.1060 c3        1 MOL     -0.120500
    157 C52        -3.0930   -0.8850   -1.2890 c3        1 MOL      0.095044
    158 C53        -1.5900   -0.4690   -1.1650 c         1 MOL      0.638223
    159 O21        -1.2070    0.5880   -1.7170 o         1 MOL     -0.768945
    160 O22        -0.7560   -1.1070   -0.4660 o         1 MOL     -0.768945
    161 H72        -5.3680    0.7420   -1.2370 hn        1 MOL      0.088676
    162 H73        -5.4590   -1.8920   -0.1510 h1        1 MOL      0.087034
    163 H74        -3.1920   -1.1420    0.8170 hc        1 MOL      0.067985
    164 H75        -3.6540    0.5170    0.2710 hc        1 MOL      0.067985
    165 H76        -3.5390   -0.2860   -2.0790 hc        1 MOL     -0.062499
    166 H77        -3.1930   -1.9450   -1.5120 hc        1 MOL     -0.062499
    167 N15        -6.4310    0.4830    1.8410 n         1 MOL     -0.098619
    168 C54        -7.2570    0.5710    3.0230 c3        1 MOL     -0.353854
    169 H78        -7.4390    1.6190    3.2620 h1        1 MOL      0.125616
    170 H79        -8.2080    0.0710    2.8410 h1        1 MOL      0.125616
    171 H80        -6.7480    0.0930    3.8600 h1        1 MOL      0.125616
    172 H81        -6.2180    1.2570    1.2230 hn        1 MOL      0.095828
    173 Ca1         1.4860   -0.2100   -1.5080 Ca        1 MOL      1.827544
    174 O23         0.1790   -1.6730   -3.4960 oh        1 MOL     -0.837233
    175 H82        -0.7620   -1.7900   -3.6520 ho        1 MOL      0.398467
    176 H83         0.5630   -1.6680   -4.3730 ho        1 MOL      0.398467
    177 O24         0.4860    2.4350   -2.3550 oh        1 MOL     -0.837233
    178 H84         0.1960    3.3460   -2.3800 ho        1 MOL      0.398467
    179 H85        -0.3040    1.9320   -2.1800 ho        1 MOL      0.398467
    180 O25         2.4800    0.5020   -4.0490 oh        1 MOL     -0.837233
    181 H86         2.3130    0.8710   -4.9130 ho        1 MOL      0.398467
    182 H87         2.9290   -0.3280   -4.2170 ho        1 MOL      0.398467
@<TRIPOS>BOND
     1    1    2 1   
     2    1    4 1   
     3    1    5 1   
     4    1    6 1   
     5    2    3 2   
     6    2    7 1   
     7    7    8 1   
     8    7   15 1   
     9    8    9 1   
    10    8   11 1   
    11    8   16 1   
    12    9   10 2   
    13    9   19 1   
    14   11   12 1   
    15   11   17 1   
    16   11   18 1   
    17   12   13 1   
    18   12   14 1   
    19   19   20 1   
    20   19   28 1   
    21   20   21 1   
    22   20   23 1   
    23   20   29 1   
    24   21   22 2   
    25   21   41 1   
    26   23   24 1   
    27   23   30 1   
    28   23   31 1   
    29   24   25 1   
    30   24   32 1   
    31   24   33 1   
    32   25   26 1   
    33   25   34 1   
    34   25   35 1   
    35   26   27 1   
    36   26   36 1   
    37   26   37 1   
    38   27   38 1   
    39   27   39 1   
    40   27   40 1   
    41   41   42 1   
    42   41   49 1   
    43   42   43 1   
    44   42   45 1   
    45   42   50 1   
    46   43   44 2   
    47   43   53 1   
    48   45   46 1   
    49   45   51 1   
    50   45   52 1   
    51   46   47 1   
    52   46   48 1   
    53   53   54 1   
    54   53   57 1   
    55   54   55 1   
    56   54   58 1   
    57   54   59 1   
    58   55   56 2   
    59   55   60 1   
    60   60   61 1   
    61   60   68 1   
    62   61   62 1   
    63   61   64 1   
    64   61   69 1   
    65   62   63 2   
    66   62   74 1   
    67   64   65 1   
    68   64   70 1   
    69   64   71 1   
    70   65   66 1   
    71   65   67 2   
    72   66   72 1   
    73   66   73 1   
    74   74   75 1   
    75   74   78 1   
    76   75   76 1   
    77   75   79 1   
    78   75   80 1   
    79   76   77 2   
    80   76   81 1   
    81   81   82 1   
    82   81   93 1   
    83   82   83 1   
    84   82   85 1   
    85   82   94 1   
    86   83   84 2   
    87   83  102 1   
    88   85   86 1   
    89   85   95 1   
    90   85   96 1   
    91   86   87 ar  
    92   86   88 ar  
    93   87   89 ar  
    94   87   97 1   
    95   88   90 ar  
    96   88   98 1   
    97   89   91 ar  
    98   89   99 1   
    99   90   91 ar  
   100   90  100 1   
   101   91   92 1   
   102   92  101 1   
   103  102  103 1   
   104  102  110 1   
   105  103  104 1   
   106  103  106 1   
   107  103  111 1   
   108  104  105 2   
   109  104  121 1   
   110  106  107 1   
   111  106  108 1   
   112  106  112 1   
   113  107  109 1   
   114  107  113 1   
   115  107  114 1   
   116  108  115 1   
   117  108  116 1   
   118  108  117 1   
   119  109  118 1   
   120  109  119 1   
   121  109  120 1   
   122  121  122 1   
   123  121  127 1   
   124  122  123 1   
   125  122  125 1   
   126  122  128 1   
   127  123  124 2   
   128  123  132 1   
   129  125  126 1   
   130  125  129 1   
   131  125  130 1   
   132  126  131 1   
   133  132  133 1   
   134  132  137 1   
   135  133  134 1   
   136  133  136 1   
   137  133  138 1   
   138  134  135 2   
   139  134  142 1   
   140  136  139 1   
   141  136  140 1   
   142  136  141 1   
   143  142  143 1   
   144  142  147 1   
   145  143  144 1   
   146  143  146 1   
   147  143  148 1   
   148  144  145 2   
   149  144  152 1   
   150  146  149 1   
   151  146  150 1   
   152  146  151 1   
   153  152  153 1   
   154  152  161 1   
   155  153  154 1   
   156  153  156 1   
   157  153  162 1   
   158  154  155 2   
   159  154  167 1   
   160  156  157 1   
   161  156  163 1   
   162  156  164 1   
   163  157  158 1   
   164  157  165 1   
   165  157  166 1   
   166  158  159 1   
   167  158  160 1   
   168  167  168 1   
   169  167  172 1   
   170  168  169 1   
   171  168  170 1   
   172  168  171 1   
   173  174  175 1   
   174  174  176 1   
   175  177  178 1   
   176  177  179 1   
   177  180  181 1   
   178  180  182 1   
@<TRIPOS>SUBSTRUCTURE
     1 MOL         1 TEMP              0 ****  ****    0 ROOT
