@<TRIPOS>MOLECULE
MOL
  183   181     1     0     0
SMALL
resp


@<TRIPOS>ATOM
      1 C1         -0.4530    1.3290    6.1240 c3        1 MOL     -0.502514
      2 C2         -0.9330    1.4630    4.6820 c         1 MOL      0.743224
      3 O1         -0.1940    1.9410    3.8160 o         1 MOL     -0.584990
      4 H1         -1.2680    0.9550    6.7440 hc        1 MOL      0.125845
      5 H2          0.3840    0.6320    6.1650 hc        1 MOL      0.125845
      6 H3         -0.1340    2.3030    6.4930 hc        1 MOL      0.125845
      7 N1         -2.1310    0.9570    4.2940 n         1 MOL     -0.632128
      8 C3         -2.7520    1.1250    2.9990 c3        1 MOL      0.261502
      9 C4         -3.1690    2.6390    2.8800 c         1 MOL      0.443906
     10 O2         -3.8510    3.1640    3.7810 o         1 MOL     -0.594649
     11 C5         -4.0240    0.2210    2.9360 c3        1 MOL     -0.137725
     12 C6         -4.5730    0.1170    1.5640 c         1 MOL      0.783479
     13 O3         -5.5470   -0.6570    1.3830 o         1 MOL     -0.656167
     14 O4         -4.0300    0.7760    0.6240 o         1 MOL     -0.656167
     15 H4         -2.8090    0.5980    4.9620 hn        1 MOL      0.298090
     16 H5         -2.0610    0.7830    2.2240 h1        1 MOL      0.019889
     17 H6         -4.8200    0.5580    3.5980 hc        1 MOL      0.008404
     18 H7         -3.7610   -0.7840    3.2650 hc        1 MOL      0.008404
     19 N2         -2.6350    3.2700    1.8240 n         1 MOL     -0.073879
     20 C7         -2.7810    4.7030    1.4290 c3        1 MOL     -0.184205
     21 C8         -3.8220    4.8330    0.3080 c         1 MOL      0.476135
     22 O5         -4.4840    5.8600    0.1210 o         1 MOL     -0.582853
     23 C9         -1.3980    5.2990    1.0630 c3        1 MOL      0.535140
     24 C10        -0.5750    5.4780    2.3420 c3        1 MOL     -0.023934
     25 C11        -1.3980    6.5790    0.2960 c3        1 MOL     -0.537143
     26 C12         0.8350    6.0080    2.1890 c3        1 MOL     -0.191421
     27 H8         -2.0410    2.6600    1.2840 hn        1 MOL      0.093285
     28 H9         -3.1190    5.2480    2.3060 h1        1 MOL      0.070872
     29 H10        -0.8310    4.6320    0.4200 hc        1 MOL     -0.081986
     30 H11        -0.6950    4.5150    2.8290 hc        1 MOL     -0.031784
     31 H12        -1.1810    6.2060    2.8760 hc        1 MOL     -0.031784
     32 H13        -2.0100    7.3690    0.7370 hc        1 MOL      0.115826
     33 H14        -0.3830    6.8800    0.0510 hc        1 MOL      0.115826
     34 H15        -1.8200    6.2790   -0.6670 hc        1 MOL      0.115826
     35 H16         0.9830    6.9380    1.6430 hc        1 MOL      0.046385
     36 H17         1.2780    6.1630    3.1770 hc        1 MOL      0.046385
     37 H18         1.4070    5.2590    1.6300 hc        1 MOL      0.046385
     38 N3         -4.0060    3.8220   -0.5630 n         1 MOL     -0.267260
     39 C13        -4.9620    3.8530   -1.6880 c3        1 MOL      0.020929
     40 C14        -6.1690    2.8660   -1.5220 c         1 MOL      0.414009
     41 O6         -7.0000    2.9200   -2.4380 o         1 MOL     -0.509596
     42 C15        -4.1890    3.7180   -2.9910 c3        1 MOL     -0.205712
     43 C16        -3.1440    2.6040   -3.0430 c         1 MOL      0.800479
     44 O7         -2.3750    2.5000   -4.0410 o         1 MOL     -0.705856
     45 O8         -3.1810    1.6540   -2.1790 o         1 MOL     -0.705856
     46 H19        -3.4680    2.9760   -0.4700 hn        1 MOL      0.103831
     47 H20        -5.3880    4.8570   -1.7650 h1        1 MOL      0.099762
     48 H21        -3.7260    4.6780   -3.1910 hc        1 MOL      0.050473
     49 H22        -4.8380    3.4790   -3.8390 hc        1 MOL      0.050473
     50 N4         -6.3460    2.0740   -0.4480 n         1 MOL     -0.115950
     51 C17        -7.6430    1.5510   -0.0220 c3        1 MOL     -0.246872
     52 C18        -8.0220    0.3340   -0.8410 c         1 MOL      0.452659
     53 O9         -9.1170    0.3270   -1.5100 o         1 MOL     -0.580321
     54 H23        -5.5830    1.7840    0.1460 hn        1 MOL      0.102833
     55 H24        -8.4830    2.2480   -0.1100 h1        1 MOL      0.102666
     56 H25        -7.5750    1.3800    1.0500 h1        1 MOL      0.102666
     57 N5         -7.1530   -0.6440   -0.8350 n         1 MOL     -0.180463
     58 C19        -7.3240   -1.9030   -1.5820 c3        1 MOL      0.017762
     59 C20        -7.1760   -3.1560   -0.6570 c         1 MOL      0.392890
     60 O10        -7.2510   -4.3210   -1.0700 o         1 MOL     -0.526096
     61 C21        -6.2360   -1.9810   -2.7560 c3        1 MOL      0.047741
     62 C22        -4.7760   -1.6910   -2.3750 c         1 MOL      0.630774
     63 O11        -3.9630   -1.1490   -3.1710 o         1 MOL     -0.682568
     64 O12        -4.3190   -1.9950   -1.2450 o         1 MOL     -0.682568
     65 H26        -6.2950   -0.4730   -0.3310 hn        1 MOL      0.157177
     66 H27        -8.3500   -1.9390   -1.9370 h1        1 MOL      0.061391
     67 H28        -6.5590   -1.3780   -3.6080 hc        1 MOL     -0.009773
     68 H29        -6.2020   -3.0090   -3.1170 hc        1 MOL     -0.009773
     69 N6         -7.0370   -2.9020    0.6470 n         1 MOL     -0.206548
     70 C23        -6.7450   -3.9420    1.6540 c3        1 MOL     -0.293508
     71 C24        -5.4120   -4.6260    1.4440 c         1 MOL      0.651213
     72 O13        -5.2050   -5.6960    1.9850 o         1 MOL     -0.615893
     73 H30        -6.9260   -1.9540    0.9860 hn        1 MOL      0.185879
     74 H31        -7.5140   -4.7120    1.5940 h1        1 MOL      0.123657
     75 H32        -6.6900   -3.3540    2.5630 h1        1 MOL      0.123657
     76 N7         -4.3830   -4.0090    0.8260 n         1 MOL     -0.239781
     77 C25        -3.0190   -4.5050    0.8300 c3        1 MOL      0.019780
     78 C26        -1.9060   -3.4120    1.0100 c         1 MOL      0.529594
     79 O14        -2.0420   -2.1640    0.9220 o         1 MOL     -0.536321
     80 C27        -2.7500   -5.4310   -0.3380 c3        1 MOL     -0.024856
     81 C28        -2.7610   -4.9800   -1.8590 c3        1 MOL     -0.277152
     82 C29        -1.7470   -3.9110   -2.3470 c         1 MOL      0.621212
     83 N8         -1.2730   -4.1540   -3.5560 n         1 MOL     -0.754006
     84 O15        -1.4340   -2.8310   -1.7870 o         1 MOL     -0.563065
     85 H33        -4.6420   -3.1670    0.3320 hn        1 MOL      0.094106
     86 H34        -2.8640   -5.1070    1.7280 h1        1 MOL      0.054689
     87 H35        -3.4760   -6.2440   -0.2470 hc        1 MOL      0.022582
     88 H36        -1.8000   -5.9210   -0.1610 hc        1 MOL      0.022582
     89 H37        -3.7250   -4.5360   -2.1240 hc        1 MOL      0.113663
     90 H38        -2.7570   -5.8140   -2.5520 hc        1 MOL      0.113663
     91 H39        -1.2750   -5.0570   -4.0050 hn        1 MOL      0.358342
     92 H40        -0.6790   -3.3950   -3.8930 hn        1 MOL      0.358342
     93 N9         -0.6770   -3.9080    1.3510 n         1 MOL     -0.433681
     94 C30         0.5030   -3.0980    1.5290 c3        1 MOL      0.065602
     95 C31         1.5140   -3.5110    0.4700 c         1 MOL      0.431013
     96 O16         2.1630   -4.5290    0.5500 o         1 MOL     -0.594036
     97 C32         1.0620   -3.2770    2.9270 c3        1 MOL      0.112503
     98 C33         2.3730   -2.5590    3.1390 c3        1 MOL     -0.135053
     99 C34         0.1570   -2.6480    3.9870 c3        1 MOL     -0.135053
    100 H41        -0.5900   -4.9100    1.4160 hn        1 MOL      0.283761
    101 H42         0.3230   -2.0290    1.3620 h1        1 MOL      0.050025
    102 H43         1.2030   -4.3400    3.1080 hc        1 MOL     -0.004687
    103 H44         2.3190   -1.5230    2.8170 hc        1 MOL      0.024758
    104 H45         2.7430   -2.6160    4.1650 hc        1 MOL      0.024758
    105 H46         3.1720   -3.1330    2.6670 hc        1 MOL      0.024758
    106 H47         0.4760   -2.8910    5.0020 hc        1 MOL      0.024758
    107 H48         0.0860   -1.5740    3.7930 hc        1 MOL      0.024758
    108 H49        -0.8730   -3.0300    3.9300 hc        1 MOL      0.024758
    109 N10         1.8120   -2.6260   -0.4150 n         1 MOL     -0.086536
    110 C35         2.9890   -2.7620   -1.3310 c3        1 MOL      0.008351
    111 C36         4.2380   -2.1430   -0.6220 c         1 MOL      0.396192
    112 O17         4.1470   -1.6800    0.5160 o         1 MOL     -0.309792
    113 C37         2.6140   -2.1980   -2.7200 c3        1 MOL      0.066488
    114 C38         2.9970   -0.7650   -2.8420 c         1 MOL      0.625857
    115 N11         2.2320    0.1050   -2.2960 n         1 MOL     -0.647364
    116 O18         3.9580   -0.4380   -3.4860 o         1 MOL     -0.612111
    117 H50         1.3030   -1.7580   -0.3440 hn        1 MOL     -0.071014
    118 H51         3.2000   -3.8190   -1.5010 h1        1 MOL      0.076361
    119 H52         1.5830   -2.4180   -2.9950 hc        1 MOL     -0.028468
    120 H53         3.2120   -2.6820   -3.4860 hc        1 MOL     -0.028468
    121 H54         1.4090   -0.2060   -1.7960 hn        1 MOL      0.364398
    122 H55         2.1600    0.9960   -2.7690 hn        1 MOL      0.364398
    123 N12         5.4200   -2.2940   -1.2240 n         1 MOL     -0.462609
    124 C39         6.7500   -1.8820   -0.6540 c3        1 MOL      0.106611
    125 C40         6.7460   -0.3600   -0.3260 c         1 MOL      0.589814
    126 O19         7.2790    0.0120    0.7260 o         1 MOL     -0.495421
    127 C41         7.9330   -2.1040   -1.5800 c3        1 MOL     -0.023587
    128 C42         9.3400   -1.6880   -1.0520 ca        1 MOL      0.085452
    129 C43         9.6480   -2.4830    0.0640 ca        1 MOL     -0.265583
    130 C44        10.2000   -0.7350   -1.6040 ca        1 MOL     -0.265583
    131 C45        10.9540   -2.2640    0.6340 ca        1 MOL     -0.170495
    132 C46        11.4730   -0.4570   -1.0070 ca        1 MOL     -0.170495
    133 C47        11.8330   -1.2470    0.1100 ca        1 MOL      0.278250
    134 O20        13.0730   -1.2540    0.6740 oh        1 MOL     -0.497839
    135 H56         5.4270   -2.6790   -2.1610 hn        1 MOL      0.269948
    136 H57         6.9150   -2.5270    0.2080 h1        1 MOL      0.053317
    137 H58         7.7580   -1.4830   -2.4630 hc        1 MOL      0.009991
    138 H59         8.0730   -3.1300   -1.9230 hc        1 MOL      0.009991
    139 H60         9.0200   -3.2500    0.4860 ha        1 MOL      0.176932
    140 H61         9.7130   -0.1300   -2.3540 ha        1 MOL      0.176932
    141 H62        11.2830   -2.8930    1.4480 ha        1 MOL      0.123203
    142 H63        12.2340    0.1840   -1.4370 ha        1 MOL      0.123203
    143 H64        13.6390   -0.7670    0.0790 ho        1 MOL      0.353985
    144 N13         6.2020    0.4790   -1.2290 n         1 MOL     -0.411703
    145 C48         5.9250    1.8920   -1.0220 c3        1 MOL     -0.118129
    146 C49         5.1710    2.2620    0.2350 c         1 MOL      0.302934
    147 O21         5.5150    3.2520    0.8900 o         1 MOL     -0.510215
    148 C50         5.1640    2.3890   -2.2850 c3        1 MOL      0.324669
    149 C51         5.3870    3.8530   -2.5660 c3        1 MOL     -0.279756
    150 C52         4.6010    4.2580   -3.8000 c         1 MOL      0.714195
    151 O22         3.6170    3.5900   -4.1660 o         1 MOL     -0.736844
    152 O23         4.8370    5.3850   -4.2920 o         1 MOL     -0.736844
    153 H65         5.8080    0.0850   -2.0750 hn        1 MOL      0.286757
    154 H66         6.9310    2.3170   -1.0520 h1        1 MOL      0.104948
    155 H67         4.1080    2.1050   -2.2620 hc        1 MOL     -0.054174
    156 H68         5.6230    1.8540   -3.1190 hc        1 MOL     -0.054174
    157 H69         6.4220    4.1490   -2.6920 hc        1 MOL      0.032146
    158 H70         5.0190    4.3760   -1.6810 hc        1 MOL      0.032146
    159 N14         4.1880    1.4450    0.6110 n         1 MOL      0.035957
    160 C53         3.3530    1.5860    1.8310 c3        1 MOL     -0.017330
    161 C54         4.0710    1.1130    3.0590 c         1 MOL      0.446202
    162 O24         3.9680    1.6810    4.1270 o         1 MOL     -0.567460
    163 C55         1.9620    0.8740    1.5970 c3        1 MOL     -0.184793
    164 C56         1.1240    1.8540    0.7990 c3        1 MOL      0.034890
    165 C57        -0.0550    1.0600    0.1200 c         1 MOL      0.414027
    166 O25        -1.1750    1.6370   -0.1170 o         1 MOL     -0.550070
    167 O26         0.2020   -0.0790   -0.3460 o         1 MOL     -0.550070
    168 H71         4.0860    0.6220    0.0340 hn        1 MOL     -0.197328
    169 H72         3.1690    2.6610    1.9670 h1        1 MOL      0.081478
    170 H73         1.5260    0.6830    2.5860 hc        1 MOL      0.133719
    171 H74         1.9950   -0.1000    1.1140 hc        1 MOL      0.133719
    172 H75         1.5760    2.4140   -0.0180 hc        1 MOL      0.089574
    173 H76         0.6760    2.6460    1.4040 hc        1 MOL      0.089574
    174 N15         4.9510    0.1190    2.8810 n         1 MOL      0.034898
    175 C58         5.7450   -0.3840    3.9240 c3        1 MOL     -0.141830
    176 H77         6.7960   -0.3300    3.6380 h1        1 MOL      0.047695
    177 H78         5.5830    0.2110    4.8240 h1        1 MOL      0.047695
    178 H79         5.4750   -1.4220    4.1200 h1        1 MOL      0.047695
    179 H80         4.8430   -0.3330    1.9870 hn        1 MOL     -0.000637
    180 Ca1        -2.3640   -0.4560   -1.0060 Ca        1 MOL      1.675747
    181 O27        -0.9770    0.2740   -3.3360 oh        1 MOL     -0.878002
    182 H81        -1.4810    1.0600   -3.5270 ho        1 MOL      0.400294
    183 H82        -0.5200    0.0770   -4.1590 ho        1 MOL      0.400294
@<TRIPOS>BOND
     1    1    2 1   
     2    1    4 1   
     3    1    5 1   
     4    1    6 1   
     5    2    3 2   
     6    2    7 1   
     7    7    8 1   
     8    7   15 1   
     9    8    9 1   
    10    8   11 1   
    11    8   16 1   
    12    9   10 2   
    13    9   19 1   
    14   11   12 1   
    15   11   17 1   
    16   11   18 1   
    17   12   13 1   
    18   12   14 1   
    19   19   20 1   
    20   19   27 1   
    21   20   21 1   
    22   20   23 1   
    23   20   28 1   
    24   21   22 2   
    25   21   38 1   
    26   23   24 1   
    27   23   25 1   
    28   23   29 1   
    29   24   26 1   
    30   24   30 1   
    31   24   31 1   
    32   25   32 1   
    33   25   33 1   
    34   25   34 1   
    35   26   35 1   
    36   26   36 1   
    37   26   37 1   
    38   38   39 1   
    39   38   46 1   
    40   39   40 1   
    41   39   42 1   
    42   39   47 1   
    43   40   41 2   
    44   40   50 1   
    45   42   43 1   
    46   42   48 1   
    47   42   49 1   
    48   43   44 1   
    49   43   45 1   
    50   50   51 1   
    51   50   54 1   
    52   51   52 1   
    53   51   55 1   
    54   51   56 1   
    55   52   53 2   
    56   52   57 1   
    57   57   58 1   
    58   57   65 1   
    59   58   59 1   
    60   58   61 1   
    61   58   66 1   
    62   59   60 2   
    63   59   69 1   
    64   61   62 1   
    65   61   67 1   
    66   61   68 1   
    67   62   63 1   
    68   62   64 1   
    69   69   70 1   
    70   69   73 1   
    71   70   71 1   
    72   70   74 1   
    73   70   75 1   
    74   71   72 2   
    75   71   76 1   
    76   76   77 1   
    77   76   85 1   
    78   77   78 1   
    79   77   80 1   
    80   77   86 1   
    81   78   79 2   
    82   78   93 1   
    83   80   81 1   
    84   80   87 1   
    85   80   88 1   
    86   81   82 1   
    87   81   89 1   
    88   81   90 1   
    89   82   83 1   
    90   82   84 2   
    91   83   91 1   
    92   83   92 1   
    93   93   94 1   
    94   93  100 1   
    95   94   95 1   
    96   94   97 1   
    97   94  101 1   
    98   95   96 2   
    99   95  109 1   
   100   97   98 1   
   101   97   99 1   
   102   97  102 1   
   103   98  103 1   
   104   98  104 1   
   105   98  105 1   
   106   99  106 1   
   107   99  107 1   
   108   99  108 1   
   109  109  110 1   
   110  109  117 1   
   111  110  111 1   
   112  110  113 1   
   113  110  118 1   
   114  111  112 2   
   115  111  123 1   
   116  113  114 1   
   117  113  119 1   
   118  113  120 1   
   119  114  115 1   
   120  114  116 2   
   121  115  121 1   
   122  115  122 1   
   123  123  124 1   
   124  123  135 1   
   125  124  125 1   
   126  124  127 1   
   127  124  136 1   
   128  125  126 2   
   129  125  144 1   
   130  127  128 1   
   131  127  137 1   
   132  127  138 1   
   133  128  129 ar  
   134  128  130 ar  
   135  129  131 ar  
   136  129  139 1   
   137  130  132 ar  
   138  130  140 1   
   139  131  133 ar  
   140  131  141 1   
   141  132  133 ar  
   142  132  142 1   
   143  133  134 1   
   144  134  143 1   
   145  144  145 1   
   146  144  153 1   
   147  145  146 1   
   148  145  148 1   
   149  145  154 1   
   150  146  147 2   
   151  146  159 1   
   152  148  149 1   
   153  148  155 1   
   154  148  156 1   
   155  149  150 1   
   156  149  157 1   
   157  149  158 1   
   158  150  151 1   
   159  150  152 1   
   160  159  160 1   
   161  159  168 1   
   162  160  161 1   
   163  160  163 1   
   164  160  169 1   
   165  161  162 2   
   166  161  174 1   
   167  163  164 1   
   168  163  170 1   
   169  163  171 1   
   170  164  165 1   
   171  164  172 1   
   172  164  173 1   
   173  165  166 1   
   174  165  167 1   
   175  174  175 1   
   176  174  179 1   
   177  175  176 1   
   178  175  177 1   
   179  175  178 1   
   180  181  182 1   
   181  181  183 1   
@<TRIPOS>SUBSTRUCTURE
     1 MOL         1 TEMP              0 ****  ****    0 ROOT
