@<TRIPOS>MOLECULE
MOL
  189   185     1     0     0
SMALL
resp


@<TRIPOS>ATOM
      1 C1          0.3760    2.4200    5.1920 c3        1 MOL     -0.279484
      2 C2         -0.3140    2.1820    3.8600 c         1 MOL      0.487972
      3 O1          0.3610    2.1040    2.8510 o         1 MOL     -0.519668
      4 H1          1.3030    2.9680    5.0260 hc        1 MOL      0.080035
      5 H2         -0.2780    3.0010    5.8420 hc        1 MOL      0.080035
      6 H3          0.6000    1.4620    5.6620 hc        1 MOL      0.080035
      7 N1         -1.6080    1.8710    3.8130 n         1 MOL     -0.441293
      8 C3         -2.3280    1.5740    2.5570 c3        1 MOL      0.207154
      9 C4         -2.9070    2.7910    1.8890 c         1 MOL      0.325314
     10 O2         -4.0990    3.0790    1.9940 o         1 MOL     -0.429712
     11 C5         -3.3920    0.4660    2.8560 c3        1 MOL     -0.169189
     12 C6         -3.9970   -0.0740    1.6040 c         1 MOL      0.803486
     13 O3         -3.4360    0.2450    0.5490 o         1 MOL     -0.754465
     14 O4         -5.0530   -0.7830    1.5910 o         1 MOL     -0.754465
     15 H4         -2.1460    1.8590    4.6690 hn        1 MOL      0.284307
     16 H5         -1.5810    1.1190    1.8970 h1        1 MOL      0.020035
     17 H6         -4.1280    0.8880    3.5310 hc        1 MOL      0.032105
     18 H7         -2.8710   -0.3750    3.3110 hc        1 MOL      0.032105
     19 N2         -2.0340    3.5690    1.2090 n         1 MOL     -0.337728
     20 C7         -2.3240    4.9390    0.7400 c3        1 MOL      0.109128
     21 C8         -3.3620    5.0430   -0.2840 c         1 MOL      0.490487
     22 O5         -4.1600    5.9450   -0.1740 o         1 MOL     -0.550681
     23 C9         -1.1210    5.6500    0.1330 c3        1 MOL     -0.464085
     24 C10         0.1240    5.9560    0.9680 c3        1 MOL      0.067579
     25 C11        -0.3030    6.8570    2.1290 c3        1 MOL     -0.169933
     26 C12         0.8740    7.5500    2.7460 c3        1 MOL     -0.122697
     27 N3          1.5720    6.6160    3.6590 n4        1 MOL     -0.307400
     28 H8         -1.1210    3.1670    1.0880 hn        1 MOL      0.253888
     29 H9         -2.6210    5.6090    1.5440 h1        1 MOL      0.057562
     30 H10        -1.4570    6.6050   -0.2900 hc        1 MOL      0.149709
     31 H11        -0.7720    4.9560   -0.6260 hc        1 MOL      0.149709
     32 H12         0.8800    6.5400    0.4550 hc        1 MOL      0.032405
     33 H13         0.6710    5.0610    1.2630 hc        1 MOL      0.032405
     34 H14        -0.9070    6.3180    2.8500 hc        1 MOL      0.117960
     35 H15        -0.9340    7.6290    1.6820 hc        1 MOL      0.117960
     36 H16         0.3930    8.3660    3.2840 hx        1 MOL      0.134446
     37 H17         1.5680    7.9390    1.9960 hx        1 MOL      0.134446
     38 H18         1.9640    5.8420    3.1370 hn        1 MOL      0.321475
     39 H19         2.3210    7.0790    4.1660 hn        1 MOL      0.321475
     40 H20         0.9140    6.1650    4.2830 hn        1 MOL      0.321475
     41 N4         -3.5490    4.0520   -1.1820 n         1 MOL     -0.290742
     42 C13        -4.5660    3.9340   -2.2180 c3        1 MOL     -0.053388
     43 C14        -5.8360    3.2160   -1.6590 c         1 MOL      0.389910
     44 O6         -6.9060    3.2600   -2.3400 o         1 MOL     -0.542861
     45 C15        -4.0910    3.3020   -3.5110 c3        1 MOL     -0.206708
     46 C16        -3.0930    2.1290   -3.2850 c         1 MOL      0.674213
     47 O7         -1.9660    2.1320   -3.8640 o         1 MOL     -0.700121
     48 O8         -3.3980    1.2780   -2.4140 o         1 MOL     -0.700121
     49 H21        -2.8700    3.2930   -1.1830 hn        1 MOL      0.251760
     50 H22        -4.8690    4.9300   -2.5160 h1        1 MOL      0.122876
     51 H23        -3.6330    3.9830   -4.2250 hc        1 MOL      0.075878
     52 H24        -4.9470    2.9800   -4.1100 hc        1 MOL      0.075878
     53 N5         -5.8560    2.5940   -0.4440 n         1 MOL     -0.045207
     54 C17        -6.9320    1.8320    0.1640 c3        1 MOL     -0.284049
     55 C18        -7.3080    0.4890   -0.5060 c         1 MOL      0.549329
     56 O9         -8.3810   -0.0700   -0.3400 o         1 MOL     -0.580926
     57 H25        -5.0240    2.7130    0.1080 hn        1 MOL      0.095490
     58 H26        -7.7890    2.5050    0.1020 h1        1 MOL      0.127230
     59 H27        -6.6440    1.7560    1.2120 h1        1 MOL      0.127230
     60 N6         -6.3620   -0.0680   -1.2480 n         1 MOL     -0.223733
     61 C19        -6.6670   -1.2250   -2.1030 c3        1 MOL      0.024500
     62 C20        -6.8430   -2.5000   -1.3000 c         1 MOL      0.388597
     63 O10        -7.4860   -3.4360   -1.7340 o         1 MOL     -0.588648
     64 C21        -5.7720   -1.4290   -3.2370 c3        1 MOL     -0.346336
     65 C22        -4.2950   -1.6880   -2.8210 c         1 MOL      0.871304
     66 O11        -3.8940   -1.9700   -1.6960 o         1 MOL     -0.714995
     67 O12        -3.5210   -1.6690   -3.7910 o         1 MOL     -0.714995
     68 H28        -5.4580    0.3690   -1.3710 hn        1 MOL      0.206467
     69 H29        -7.6160   -0.9980   -2.5850 h1        1 MOL      0.094311
     70 H30        -5.7920   -0.4430   -3.7060 hc        1 MOL      0.103838
     71 H31        -6.0260   -2.2160   -3.9350 hc        1 MOL      0.103838
     72 N7         -6.3470   -2.5190   -0.1140 n         1 MOL     -0.041786
     73 C23        -6.5180   -3.5840    0.9260 c3        1 MOL     -0.235096
     74 C24        -5.1920   -4.1390    1.4140 c         1 MOL      0.578656
     75 O13        -5.1400   -5.0830    2.1810 o         1 MOL     -0.612393
     76 H32        -5.8120   -1.7190    0.2050 hn        1 MOL      0.256894
     77 H33        -7.1170   -4.4100    0.5300 h1        1 MOL      0.115050
     78 H34        -7.0140   -3.1590    1.7940 h1        1 MOL      0.115050
     79 N8         -4.0500   -3.7100    0.9500 n         1 MOL     -0.094157
     80 C25        -2.7500   -4.3560    1.2600 c3        1 MOL     -0.345556
     81 C26        -1.6270   -3.3440    1.3350 c         1 MOL      0.845659
     82 O14        -1.6610   -2.2950    0.7570 o         1 MOL     -0.619981
     83 C27        -2.3940   -5.3080    0.0520 c3        1 MOL      0.273885
     84 C28        -3.0050   -6.7310    0.2100 c3        1 MOL     -0.473175
     85 O15        -2.9100   -4.7680   -1.1990 oh        1 MOL     -0.574883
     86 H35        -4.0190   -2.9600    0.2770 hn        1 MOL      0.041573
     87 H36        -2.8230   -5.0390    2.1010 h1        1 MOL      0.151337
     88 H37        -1.3050   -5.3770   -0.0490 h1        1 MOL      0.078906
     89 H38        -3.8360   -4.6490   -0.9770 ho        1 MOL      0.391974
     90 H39        -2.8130   -7.3700   -0.6450 hc        1 MOL      0.133242
     91 H40        -2.5920   -7.3800    0.9810 hc        1 MOL      0.133242
     92 H41        -4.0930   -6.6750    0.2600 hc        1 MOL      0.133242
     93 N9         -0.5620   -3.8190    2.0190 n         1 MOL     -0.624308
     94 C29         0.6430   -3.0680    2.0480 c3        1 MOL     -0.263223
     95 C30         1.7520   -3.6850    1.1320 c         1 MOL      0.562449
     96 O16         2.2170   -4.8180    1.3210 o         1 MOL     -0.550684
     97 C31         1.2090   -2.9370    3.5000 c3        1 MOL      0.608275
     98 C32         0.2080   -2.5770    4.5570 c3        1 MOL     -0.095984
     99 C33         2.3570   -1.9070    3.5840 c3        1 MOL     -0.685572
    100 C34         0.6710   -2.8670    6.0100 c3        1 MOL     -0.160017
    101 H42        -0.7070   -4.5800    2.6560 hn        1 MOL      0.332936
    102 H43         0.5520   -2.0200    1.7380 h1        1 MOL      0.117691
    103 H44         1.6190   -3.8860    3.8370 hc        1 MOL     -0.079586
    104 H45        -0.6980   -3.1770    4.4720 hc        1 MOL      0.035882
    105 H46        -0.1040   -1.5280    4.5170 hc        1 MOL      0.035882
    106 H47         1.9030   -1.0170    3.1590 hc        1 MOL      0.144976
    107 H48         2.7250   -1.8390    4.6140 hc        1 MOL      0.144976
    108 H49         3.1860   -2.2990    2.9960 hc        1 MOL      0.144976
    109 H50         0.9300   -3.9150    6.1050 hc        1 MOL      0.039887
    110 H51         1.5430   -2.2700    6.2730 hc        1 MOL      0.039887
    111 H52        -0.1600   -2.5620    6.6430 hc        1 MOL      0.039887
    112 N10         2.0780   -2.9060    0.0690 n         1 MOL     -0.092950
    113 C35         3.3260   -3.1870   -0.8210 c3        1 MOL     -0.396463
    114 C36         4.7210   -2.7730   -0.2860 c         1 MOL      0.609409
    115 O17         4.8720   -2.0460    0.7110 o         1 MOL     -0.465671
    116 C37         3.1670   -2.4990   -2.1960 c3        1 MOL      0.367883
    117 C38         2.1150   -3.1180   -3.0290 c3        1 MOL     -0.285812
    118 O18         2.7440   -1.1140   -2.1460 oh        1 MOL     -0.677374
    119 H53         1.5440   -2.0650   -0.0940 hn        1 MOL      0.151944
    120 H54         3.3340   -4.2430   -1.0600 h1        1 MOL      0.136042
    121 H55         4.1040   -2.5730   -2.7520 h1        1 MOL      0.008169
    122 H56         2.0020   -1.0110   -1.5460 ho        1 MOL      0.446110
    123 H57         1.6030   -2.4010   -3.6840 hc        1 MOL      0.073246
    124 H58         2.4750   -3.8560   -3.7420 hc        1 MOL      0.073246
    125 H59         1.3040   -3.5730   -2.4570 hc        1 MOL      0.073246
    126 N11         5.7970   -3.2120   -0.9640 n         1 MOL     -0.356162
    127 C39         7.2030   -2.9090   -0.5230 c3        1 MOL     -0.278582
    128 C40         7.5480   -1.4690   -0.5270 c         1 MOL      0.404419
    129 O19         8.2320   -1.0160    0.4120 o         1 MOL     -0.511515
    130 C41         8.3010   -3.7280   -1.3210 c3        1 MOL      0.443238
    131 C42         8.5790   -5.1730   -0.8130 c3        1 MOL     -0.415665
    132 O20         7.9170   -3.7450   -2.6730 oh        1 MOL     -0.641104
    133 H60         5.6410   -3.8520   -1.7270 hn        1 MOL      0.300167
    134 H61         7.3150   -3.3510    0.4640 h1        1 MOL      0.182607
    135 H62         9.2590   -3.2160   -1.2470 h1        1 MOL      0.018566
    136 H63         8.6630   -3.6590   -3.2560 ho        1 MOL      0.401830
    137 H64         7.6380   -5.6640   -1.0270 hc        1 MOL      0.115773
    138 H65         9.3850   -5.6530   -1.3880 hc        1 MOL      0.115773
    139 H66         8.9000   -5.1090    0.2290 hc        1 MOL      0.115773
    140 N12         7.0400   -0.6140   -1.3970 n         1 MOL     -0.324890
    141 C43         7.2670    0.8300   -1.3190 c3        1 MOL      0.138327
    142 C44         6.3640    1.4560   -0.2380 c         1 MOL      0.206992
    143 O21         6.6420    2.5340    0.3540 o         1 MOL     -0.534414
    144 C45         7.1170    1.3490   -2.7290 c3        1 MOL     -0.412877
    145 C46         7.1090    2.8470   -2.7400 c3        1 MOL      0.350711
    146 C47         7.2210    3.4950   -4.1270 c3        1 MOL     -0.075173
    147 C48         7.1690    5.0080   -3.9730 c3        1 MOL     -0.008711
    148 N13         5.7760    5.5410   -3.5560 n4        1 MOL     -0.436873
    149 H67         6.5220   -0.9710   -2.1870 hn        1 MOL      0.257232
    150 H68         8.3140    1.0240   -1.0540 h1        1 MOL      0.117464
    151 H69         6.1880    0.9710   -3.1380 hc        1 MOL      0.109894
    152 H70         7.9600    0.9810   -3.3060 hc        1 MOL      0.109894
    153 H71         7.8910    3.2660   -2.1030 hc        1 MOL     -0.038348
    154 H72         6.1370    3.1150   -2.3200 hc        1 MOL     -0.038348
    155 H73         6.3120    3.2040   -4.6570 hc        1 MOL      0.046383
    156 H74         8.1180    3.1290   -4.6220 hc        1 MOL      0.046383
    157 H75         7.3650    5.4150   -4.9580 hx        1 MOL      0.096909
    158 H76         7.9330    5.3730   -3.2930 hx        1 MOL      0.096909
    159 H77         5.2720    4.9850   -2.8930 hn        1 MOL      0.316012
    160 H78         5.8570    6.4980   -3.2220 hn        1 MOL      0.316012
    161 H79         5.1870    5.5530   -4.3810 hn        1 MOL      0.316012
    162 N14         5.1980    0.9090   -0.0030 n         1 MOL      0.033340
    163 C49         4.2900    1.3970    1.0110 c3        1 MOL     -0.069475
    164 C50         4.9200    1.2640    2.4110 c         1 MOL      0.491380
    165 O22         4.7730    2.2130    3.1820 o         1 MOL     -0.567170
    166 C51         2.9510    0.6020    0.8710 c3        1 MOL     -0.290226
    167 C52         1.9880    1.3680   -0.1000 c3        1 MOL     -0.181974
    168 C53         0.7360    0.5900   -0.4210 c         1 MOL      0.847186
    169 O23        -0.3310    1.2530   -0.5260 o         1 MOL     -0.705278
    170 O24         0.7390   -0.5980   -0.7340 o         1 MOL     -0.705278
    171 H80         4.8860    0.1380   -0.5800 hn        1 MOL      0.158280
    172 H81         4.0560    2.4440    0.8800 h1        1 MOL      0.067369
    173 H82         2.4740    0.7280    1.8480 hc        1 MOL      0.107080
    174 H83         3.0770   -0.4710    0.7260 hc        1 MOL      0.107080
    175 H84         2.3760    1.5670   -1.0990 hc        1 MOL      0.047290
    176 H85         1.6770    2.3430    0.2930 hc        1 MOL      0.047290
    177 N15         5.7240    0.2320    2.6870 n         1 MOL     -0.099233
    178 C54         6.6360    0.2410    3.8200 c3        1 MOL     -0.337269
    179 H86         7.4430    0.9500    3.6310 h1        1 MOL      0.123538
    180 H87         6.0970    0.5370    4.7200 h1        1 MOL      0.123538
    181 H88         7.0550   -0.7560    3.9590 h1        1 MOL      0.123538
    182 H89         5.6930   -0.5620    2.0620 hn        1 MOL      0.209919
    183 Ca1        -1.8610   -0.6370   -1.2530 Ca        1 MOL      1.711788
    184 O25        -1.2110   -2.9470   -2.4640 oh        1 MOL     -0.863066
    185 H90        -1.8010   -3.6680   -2.2170 ho        1 MOL      0.409513
    186 H91        -0.7940   -3.2440   -3.2660 ho        1 MOL      0.409513
    187 O26        -0.6390   -0.1340   -3.7930 oh        1 MOL     -0.863066
    188 H92        -1.1860    0.6450   -3.8650 ho        1 MOL      0.409513
    189 H93        -0.7820   -0.6080   -4.6100 ho        1 MOL      0.409513
@<TRIPOS>BOND
     1    1    2 1   
     2    1    4 1   
     3    1    5 1   
     4    1    6 1   
     5    2    3 2   
     6    2    7 1   
     7    7    8 1   
     8    7   15 1   
     9    8    9 1   
    10    8   11 1   
    11    8   16 1   
    12    9   10 2   
    13    9   19 1   
    14   11   12 1   
    15   11   17 1   
    16   11   18 1   
    17   12   13 1   
    18   12   14 1   
    19   19   20 1   
    20   19   28 1   
    21   20   21 1   
    22   20   23 1   
    23   20   29 1   
    24   21   22 2   
    25   21   41 1   
    26   23   24 1   
    27   23   30 1   
    28   23   31 1   
    29   24   25 1   
    30   24   32 1   
    31   24   33 1   
    32   25   26 1   
    33   25   34 1   
    34   25   35 1   
    35   26   27 1   
    36   26   36 1   
    37   26   37 1   
    38   27   38 1   
    39   27   39 1   
    40   27   40 1   
    41   41   42 1   
    42   41   49 1   
    43   42   43 1   
    44   42   45 1   
    45   42   50 1   
    46   43   44 2   
    47   43   53 1   
    48   45   46 1   
    49   45   51 1   
    50   45   52 1   
    51   46   47 1   
    52   46   48 1   
    53   53   54 1   
    54   53   57 1   
    55   54   55 1   
    56   54   58 1   
    57   54   59 1   
    58   55   56 2   
    59   55   60 1   
    60   60   61 1   
    61   60   68 1   
    62   61   62 1   
    63   61   64 1   
    64   61   69 1   
    65   62   63 2   
    66   62   72 1   
    67   64   65 1   
    68   64   70 1   
    69   64   71 1   
    70   65   66 1   
    71   65   67 1   
    72   72   73 1   
    73   72   76 1   
    74   73   74 1   
    75   73   77 1   
    76   73   78 1   
    77   74   75 2   
    78   74   79 1   
    79   79   80 1   
    80   79   86 1   
    81   80   81 1   
    82   80   83 1   
    83   80   87 1   
    84   81   82 2   
    85   81   93 1   
    86   83   84 1   
    87   83   85 1   
    88   83   88 1   
    89   84   90 1   
    90   84   91 1   
    91   84   92 1   
    92   85   89 1   
    93   93   94 1   
    94   93  101 1   
    95   94   95 1   
    96   94   97 1   
    97   94  102 1   
    98   95   96 2   
    99   95  112 1   
   100   97   98 1   
   101   97   99 1   
   102   97  103 1   
   103   98  100 1   
   104   98  104 1   
   105   98  105 1   
   106   99  106 1   
   107   99  107 1   
   108   99  108 1   
   109  100  109 1   
   110  100  110 1   
   111  100  111 1   
   112  112  113 1   
   113  112  119 1   
   114  113  114 1   
   115  113  116 1   
   116  113  120 1   
   117  114  115 2   
   118  114  126 1   
   119  116  117 1   
   120  116  118 1   
   121  116  121 1   
   122  117  123 1   
   123  117  124 1   
   124  117  125 1   
   125  118  122 1   
   126  126  127 1   
   127  126  133 1   
   128  127  128 1   
   129  127  130 1   
   130  127  134 1   
   131  128  129 2   
   132  128  140 1   
   133  130  131 1   
   134  130  132 1   
   135  130  135 1   
   136  131  137 1   
   137  131  138 1   
   138  131  139 1   
   139  132  136 1   
   140  140  141 1   
   141  140  149 1   
   142  141  142 1   
   143  141  144 1   
   144  141  150 1   
   145  142  143 2   
   146  142  162 1   
   147  144  145 1   
   148  144  151 1   
   149  144  152 1   
   150  145  146 1   
   151  145  153 1   
   152  145  154 1   
   153  146  147 1   
   154  146  155 1   
   155  146  156 1   
   156  147  148 1   
   157  147  157 1   
   158  147  158 1   
   159  148  159 1   
   160  148  160 1   
   161  148  161 1   
   162  162  163 1   
   163  162  171 1   
   164  163  164 1   
   165  163  166 1   
   166  163  172 1   
   167  164  165 2   
   168  164  177 1   
   169  166  167 1   
   170  166  173 1   
   171  166  174 1   
   172  167  168 1   
   173  167  175 1   
   174  167  176 1   
   175  168  169 1   
   176  168  170 1   
   177  177  178 1   
   178  177  182 1   
   179  178  179 1   
   180  178  180 1   
   181  178  181 1   
   182  184  185 1   
   183  184  186 1   
   184  187  188 1   
   185  187  189 1   
@<TRIPOS>SUBSTRUCTURE
     1 MOL         1 TEMP              0 ****  ****    0 ROOT
