@<TRIPOS>MOLECULE
MOL
  183   181     1     0     0
SMALL
resp


@<TRIPOS>ATOM
      1 C1          1.0010   -1.4290    6.4460 c3        1 MOL     -0.312749
      2 C2          1.2250   -1.5340    4.9180 c         1 MOL      0.643078
      3 O1          0.2220   -1.4930    4.1790 o         1 MOL     -0.535008
      4 H1          0.2010   -2.1080    6.7430 hc        1 MOL      0.075664
      5 H2          1.9190   -1.7010    6.9670 hc        1 MOL      0.075664
      6 H3          0.7240   -0.4080    6.7040 hc        1 MOL      0.075664
      7 N1          2.4520   -1.7230    4.4240 n         1 MOL     -0.508521
      8 C3          2.8200   -1.7180    3.0320 c3        1 MOL      0.029119
      9 C4          3.1450   -3.1190    2.5080 c         1 MOL      0.591803
     10 O2          3.9310   -3.8260    3.1100 o         1 MOL     -0.572509
     11 C5          4.0590   -0.8020    2.8350 c3        1 MOL     -0.313473
     12 C6          4.8190   -0.7630    1.5180 c         1 MOL      0.793782
     13 O3          5.9690   -0.3960    1.4370 o         1 MOL     -0.689920
     14 O4          4.2160   -1.0700    0.4930 o         1 MOL     -0.689920
     15 H4          3.1440   -1.6940    5.1640 hn        1 MOL      0.302851
     16 H5          1.9870   -1.2990    2.4710 h1        1 MOL      0.115670
     17 H6          4.8170   -0.9840    3.5910 hc        1 MOL      0.070080
     18 H7          3.8000    0.2440    3.0410 hc        1 MOL      0.070080
     19 N2          2.5190   -3.6210    1.4160 n         1 MOL     -0.437130
     20 C7          2.4870   -4.9210    0.9680 c3        1 MOL      0.076540
     21 C8          3.6150   -5.0410    0.0090 c         1 MOL      0.412504
     22 O5          4.2680   -6.0760    0.0810 o         1 MOL     -0.575751
     23 C9          1.1230   -5.3820    0.4780 c3        1 MOL      0.239584
     24 C10         0.1520   -5.4230    1.6650 c3        1 MOL      0.084789
     25 C11         1.3680   -6.7110   -0.2670 c3        1 MOL     -0.432700
     26 C12        -1.2290   -5.8670    1.2940 c3        1 MOL     -0.172445
     27 H8          1.9120   -2.9370    0.9790 hn        1 MOL      0.187116
     28 H9          2.7550   -5.6430    1.7400 h1        1 MOL      0.037986
     29 H10         0.7940   -4.6190   -0.2250 hc        1 MOL      0.017711
     30 H11         0.0310   -4.4670    2.1710 hc        1 MOL     -0.013704
     31 H12         0.5310   -6.0920    2.4400 hc        1 MOL     -0.013704
     32 H13         1.8400   -7.4350    0.3990 hc        1 MOL      0.100226
     33 H14         0.4200   -7.0350   -0.6870 hc        1 MOL      0.100226
     34 H15         2.0600   -6.5380   -1.0840 hc        1 MOL      0.100226
     35 H16        -1.6810   -5.1240    0.6350 hc        1 MOL      0.029866
     36 H17        -1.2460   -6.8160    0.7660 hc        1 MOL      0.029866
     37 H18        -1.8020   -5.9280    2.2200 hc        1 MOL      0.029866
     38 N3          3.8180   -4.0690   -0.8880 n         1 MOL     -0.186316
     39 C13         4.5620   -4.0970   -2.1470 c3        1 MOL     -0.349049
     40 C14         6.0630   -3.6560   -1.8940 c         1 MOL      0.640648
     41 O6          6.8940   -3.9180   -2.7440 o         1 MOL     -0.563836
     42 C15         3.9180   -3.3020   -3.2330 c3        1 MOL      0.189386
     43 C16         2.4480   -3.1230   -3.0780 c         1 MOL      0.566432
     44 O7          1.6110   -3.7740   -3.7920 o         1 MOL     -0.663562
     45 O8          2.1100   -2.1590   -2.3310 o         1 MOL     -0.663562
     46 H19         3.1990   -3.2720   -0.8070 hn        1 MOL      0.216374
     47 H20         4.5560   -5.1350   -2.5010 h1        1 MOL      0.141886
     48 H21         4.0880   -3.8140   -4.1850 hc        1 MOL     -0.040484
     49 H22         4.4940   -2.3740   -3.1750 hc        1 MOL     -0.040484
     50 N4          6.3830   -3.1840   -0.7100 n         1 MOL     -0.361142
     51 C17         7.7310   -2.7940   -0.3160 c3        1 MOL     -0.011407
     52 C18         8.1700   -1.4350   -1.0060 c         1 MOL      0.517301
     53 O9          9.1980   -1.4100   -1.6720 o         1 MOL     -0.582763
     54 H23         5.6500   -2.9050   -0.0740 hn        1 MOL      0.312816
     55 H24         8.5360   -3.4770   -0.5580 h1        1 MOL      0.042798
     56 H25         7.7990   -2.6190    0.7560 h1        1 MOL      0.042798
     57 N5          7.3540   -0.3870   -0.9710 n         1 MOL     -0.384409
     58 C19         7.5080    0.8710   -1.7340 c3        1 MOL      0.258283
     59 C20         7.4570    2.2150   -0.9870 c         1 MOL      0.226239
     60 O10         7.8660    3.2760   -1.4550 o         1 MOL     -0.519272
     61 C21         6.5900    0.8790   -2.9680 c3        1 MOL     -0.285413
     62 C22         5.0520    0.8740   -2.5410 c         1 MOL      0.835900
     63 O11         4.2520    0.0520   -2.9720 o         1 MOL     -0.802101
     64 O12         4.7110    1.4440   -1.5150 o         1 MOL     -0.802101
     65 H26         6.5550   -0.4800   -0.3600 hn        1 MOL      0.219845
     66 H27         8.4780    0.8760   -2.2360 h1        1 MOL      0.036734
     67 H28         6.6690   -0.0530   -3.5240 hc        1 MOL      0.071991
     68 H29         6.7550    1.7230   -3.6330 hc        1 MOL      0.071991
     69 N6          6.8740    2.2050    0.2040 n         1 MOL     -0.033392
     70 C23         7.0200    3.2870    1.2010 c3        1 MOL     -0.096033
     71 C24         5.8690    4.2890    1.2820 c         1 MOL      0.494671
     72 O13         5.9270    5.3950    1.8580 o         1 MOL     -0.564960
     73 H30         6.5530    1.2870    0.4940 hn        1 MOL      0.107265
     74 H31         7.9020    3.9170    1.0290 h1        1 MOL      0.074309
     75 H32         7.2720    2.8360    2.1580 h1        1 MOL      0.074309
     76 N7          4.6990    3.8200    0.7400 n         1 MOL     -0.432219
     77 C25         3.4320    4.4920    0.7690 c3        1 MOL      0.122272
     78 C26         2.3450    3.3870    0.8110 c         1 MOL      0.499756
     79 O14         2.5000    2.3470    0.2480 o         1 MOL     -0.572907
     80 C27         3.1840    5.5310   -0.3130 c3        1 MOL      0.035386
     81 C28         4.1010    6.7610   -0.2540 c3        1 MOL     -0.305084
     82 C29         3.8010    7.8090   -1.3440 c         1 MOL      0.686219
     83 N8          4.3350    7.6150   -2.5250 n         1 MOL     -0.816846
     84 O15         3.1360    8.7920   -1.0390 o         1 MOL     -0.586059
     85 H33         4.8540    2.9560    0.2260 hn        1 MOL      0.313587
     86 H34         3.3030    5.0700    1.6890 h1        1 MOL      0.051607
     87 H35         2.1720    5.9170   -0.2640 hc        1 MOL      0.021536
     88 H36         3.2100    5.0780   -1.3010 hc        1 MOL      0.021536
     89 H37         5.1440    6.4350   -0.2920 hc        1 MOL      0.100761
     90 H38         4.0060    7.1170    0.7690 hc        1 MOL      0.100761
     91 H39         4.7750    6.7180   -2.6610 hn        1 MOL      0.374864
     92 H40         4.1760    8.2780   -3.2750 hn        1 MOL      0.374864
     93 N9          1.1650    3.6910    1.3690 n         1 MOL     -0.526385
     94 C30         0.0330    2.8090    1.6490 c3        1 MOL      0.178485
     95 C31        -1.1360    3.4010    0.8900 c         1 MOL      0.475836
     96 O16        -1.5940    4.4580    1.1280 o         1 MOL     -0.553765
     97 C32        -0.3470    2.7690    3.1740 c3        1 MOL      0.304970
     98 C33        -1.4530    1.8220    3.4110 c3        1 MOL     -0.198681
     99 C34         0.8520    2.3880    4.0320 c3        1 MOL     -0.198681
    100 H41         1.0210    4.6100    1.7530 hn        1 MOL      0.266469
    101 H42         0.2040    1.8000    1.2710 h1        1 MOL      0.103623
    102 H43        -0.6220    3.7820    3.4920 hc        1 MOL     -0.067386
    103 H44        -2.2280    1.9030    2.6480 hc        1 MOL      0.024981
    104 H45        -1.1220    0.7900    3.4590 hc        1 MOL      0.024981
    105 H46        -2.0020    2.0450    4.3310 hc        1 MOL      0.024981
    106 H47         0.5310    2.4440    5.0710 hc        1 MOL      0.024981
    107 H48         1.2240    1.4200    3.6980 hc        1 MOL      0.024981
    108 H49         1.6320    3.1510    3.9980 hc        1 MOL      0.024981
    109 N10        -1.5690    2.5610   -0.0930 n         1 MOL     -0.437599
    110 C35        -2.8150    2.7910   -0.8750 c3        1 MOL      0.364411
    111 C36        -4.0800    2.2780   -0.1480 c         1 MOL      0.178625
    112 O17        -3.9560    1.5120    0.8040 o         1 MOL     -0.197451
    113 C37        -2.5590    2.1560   -2.3310 c3        1 MOL     -0.572180
    114 C38        -3.6390    1.2290   -2.8060 c         1 MOL      0.608047
    115 N11        -4.4030    1.6160   -3.7860 n         1 MOL     -0.760422
    116 O18        -3.9080    0.1930   -2.3450 o         1 MOL     -0.344841
    117 H50        -1.1150    1.6670   -0.1600 hn        1 MOL      0.239288
    118 H51        -2.8900    3.8660   -1.0550 h1        1 MOL      0.022085
    119 H52        -1.7490    1.4710   -2.1010 hc        1 MOL      0.164195
    120 H53        -2.1060    2.8520   -3.0320 hc        1 MOL      0.164195
    121 H54        -4.0270    2.4080   -4.2860 hn        1 MOL      0.350372
    122 H55        -4.9530    0.9170   -4.2570 hn        1 MOL      0.350372
    123 N12        -5.3060    2.6030   -0.6050 n         1 MOL     -0.379654
    124 C39        -6.6280    2.1480   -0.0450 c3        1 MOL      0.085603
    125 C40        -6.7390    0.6220    0.1570 c         1 MOL      0.434076
    126 O19        -7.3350    0.1400    1.0650 o         1 MOL     -0.507697
    127 C41        -7.8310    2.6190   -0.9030 c3        1 MOL     -0.115314
    128 C42        -9.1910    2.1760   -0.3740 ca        1 MOL      0.037709
    129 C43        -9.7760    2.7050    0.8520 ca        1 MOL     -0.180639
    130 C44       -10.0280    1.4080   -1.2130 ca        1 MOL     -0.180639
    131 C45       -11.0690    2.3610    1.2330 ca        1 MOL     -0.226541
    132 C46       -11.2770    0.9600   -0.7910 ca        1 MOL     -0.226541
    133 C47       -11.7750    1.4410    0.4430 ca        1 MOL      0.366172
    134 O20       -13.0490    1.0840    0.7670 oh        1 MOL     -0.582282
    135 H56        -5.3550    3.2610   -1.3680 hn        1 MOL      0.235396
    136 H57        -6.8930    2.5860    0.9200 h1        1 MOL      0.053019
    137 H58        -7.6640    2.2740   -1.9190 hc        1 MOL      0.049216
    138 H59        -7.8150    3.7000   -0.9370 hc        1 MOL      0.049216
    139 H60        -9.1590    3.3740    1.4400 ha        1 MOL      0.142571
    140 H61        -9.6780    1.0740   -2.1850 ha        1 MOL      0.142571
    141 H62       -11.4640    2.6960    2.1840 ha        1 MOL      0.139696
    142 H63       -11.8520    0.2980   -1.4280 ha        1 MOL      0.139696
    143 H64       -13.2880    0.2190    0.4190 ho        1 MOL      0.405861
    144 N13        -6.3020   -0.1930   -0.8110 n         1 MOL     -0.095796
    145 C48        -6.5440   -1.6290   -0.7260 c3        1 MOL     -0.077460
    146 C49        -5.5050   -2.3700    0.1590 c         1 MOL      0.315795
    147 O21        -5.8570   -3.2590    0.9000 o         1 MOL     -0.501587
    148 C50        -6.5040   -2.1880   -2.1180 c3        1 MOL      0.261169
    149 C51        -7.7390   -1.7370   -2.8890 c3        1 MOL     -0.282439
    150 C52        -8.1320   -2.6420   -4.0930 c         1 MOL      0.690016
    151 O22        -9.1480   -3.3680   -4.0060 o         1 MOL     -0.733409
    152 O23        -7.4530   -2.7160   -5.1380 o         1 MOL     -0.733409
    153 H65        -5.7220    0.2740   -1.5010 hn        1 MOL      0.170778
    154 H66        -7.5310   -1.7880   -0.2980 h1        1 MOL      0.119334
    155 H67        -6.5000   -3.2690   -1.9860 hc        1 MOL     -0.040987
    156 H68        -5.5790   -1.9120   -2.6230 hc        1 MOL     -0.040987
    157 H69        -7.5770   -0.6900   -3.1220 hc        1 MOL      0.005264
    158 H70        -8.5580   -1.8130   -2.1690 hc        1 MOL      0.005264
    159 N14        -4.3260   -1.8280    0.3160 n         1 MOL     -0.126142
    160 C53        -3.3470   -2.1170    1.3740 c3        1 MOL      0.058621
    161 C54        -3.8380   -1.7540    2.8610 c         1 MOL      0.337799
    162 O24        -3.7920   -2.5970    3.7600 o         1 MOL     -0.511925
    163 C55        -2.1020   -1.3110    1.1750 c3        1 MOL      0.112787
    164 C56        -1.3580   -1.6380   -0.1160 c3        1 MOL      0.181497
    165 C57        -0.0600   -0.8710   -0.2170 c         1 MOL      0.620029
    166 O25         0.9720   -1.4090    0.2900 o         1 MOL     -0.765444
    167 O26        -0.0540    0.2400   -0.7900 o         1 MOL     -0.765444
    168 H71        -4.1140   -1.0060   -0.2280 hn        1 MOL      0.015679
    169 H72        -3.0410   -3.1520    1.4470 h1        1 MOL      0.054274
    170 H73        -1.4110   -1.5220    1.9930 hc        1 MOL     -0.011735
    171 H74        -2.4570   -0.2740    1.1630 hc        1 MOL     -0.011735
    172 H75        -1.9120   -1.5510   -1.0480 hc        1 MOL     -0.058667
    173 H76        -1.1890   -2.7090   -0.1200 hc        1 MOL     -0.058667
    174 N15        -4.5900   -0.5970    2.9360 n         1 MOL      0.100896
    175 C58        -5.2330   -0.0710    4.1740 c3        1 MOL     -0.430213
    176 H77        -6.0590   -0.7220    4.4590 h1        1 MOL      0.133031
    177 H78        -4.4990   -0.0410    4.9800 h1        1 MOL      0.133031
    178 H79        -5.6110    0.9350    3.9890 h1        1 MOL      0.133031
    179 H80        -4.6510   -0.0710    2.0790 hn        1 MOL     -0.042966
    180 Ca1         2.6320    0.0890   -1.0440 Ca        1 MOL      1.675161
    181 O27         1.4690    1.4070   -3.0750 oh        1 MOL     -0.763906
    182 H81         1.4920    1.7970   -3.9530 ho        1 MOL      0.390173
    183 H82         0.6410    0.9260   -3.0530 ho        1 MOL      0.390173
@<TRIPOS>BOND
     1    1    2 1   
     2    1    4 1   
     3    1    5 1   
     4    1    6 1   
     5    2    3 2   
     6    2    7 1   
     7    7    8 1   
     8    7   15 1   
     9    8    9 1   
    10    8   11 1   
    11    8   16 1   
    12    9   10 2   
    13    9   19 1   
    14   11   12 1   
    15   11   17 1   
    16   11   18 1   
    17   12   13 1   
    18   12   14 1   
    19   19   20 1   
    20   19   27 1   
    21   20   21 1   
    22   20   23 1   
    23   20   28 1   
    24   21   22 2   
    25   21   38 1   
    26   23   24 1   
    27   23   25 1   
    28   23   29 1   
    29   24   26 1   
    30   24   30 1   
    31   24   31 1   
    32   25   32 1   
    33   25   33 1   
    34   25   34 1   
    35   26   35 1   
    36   26   36 1   
    37   26   37 1   
    38   38   39 1   
    39   38   46 1   
    40   39   40 1   
    41   39   42 1   
    42   39   47 1   
    43   40   41 2   
    44   40   50 1   
    45   42   43 1   
    46   42   48 1   
    47   42   49 1   
    48   43   44 1   
    49   43   45 1   
    50   50   51 1   
    51   50   54 1   
    52   51   52 1   
    53   51   55 1   
    54   51   56 1   
    55   52   53 2   
    56   52   57 1   
    57   57   58 1   
    58   57   65 1   
    59   58   59 1   
    60   58   61 1   
    61   58   66 1   
    62   59   60 2   
    63   59   69 1   
    64   61   62 1   
    65   61   67 1   
    66   61   68 1   
    67   62   63 1   
    68   62   64 1   
    69   69   70 1   
    70   69   73 1   
    71   70   71 1   
    72   70   74 1   
    73   70   75 1   
    74   71   72 2   
    75   71   76 1   
    76   76   77 1   
    77   76   85 1   
    78   77   78 1   
    79   77   80 1   
    80   77   86 1   
    81   78   79 2   
    82   78   93 1   
    83   80   81 1   
    84   80   87 1   
    85   80   88 1   
    86   81   82 1   
    87   81   89 1   
    88   81   90 1   
    89   82   83 1   
    90   82   84 2   
    91   83   91 1   
    92   83   92 1   
    93   93   94 1   
    94   93  100 1   
    95   94   95 1   
    96   94   97 1   
    97   94  101 1   
    98   95   96 2   
    99   95  109 1   
   100   97   98 1   
   101   97   99 1   
   102   97  102 1   
   103   98  103 1   
   104   98  104 1   
   105   98  105 1   
   106   99  106 1   
   107   99  107 1   
   108   99  108 1   
   109  109  110 1   
   110  109  117 1   
   111  110  111 1   
   112  110  113 1   
   113  110  118 1   
   114  111  112 2   
   115  111  123 1   
   116  113  114 1   
   117  113  119 1   
   118  113  120 1   
   119  114  115 1   
   120  114  116 2   
   121  115  121 1   
   122  115  122 1   
   123  123  124 1   
   124  123  135 1   
   125  124  125 1   
   126  124  127 1   
   127  124  136 1   
   128  125  126 2   
   129  125  144 1   
   130  127  128 1   
   131  127  137 1   
   132  127  138 1   
   133  128  129 ar  
   134  128  130 ar  
   135  129  131 ar  
   136  129  139 1   
   137  130  132 ar  
   138  130  140 1   
   139  131  133 ar  
   140  131  141 1   
   141  132  133 ar  
   142  132  142 1   
   143  133  134 1   
   144  134  143 1   
   145  144  145 1   
   146  144  153 1   
   147  145  146 1   
   148  145  148 1   
   149  145  154 1   
   150  146  147 2   
   151  146  159 1   
   152  148  149 1   
   153  148  155 1   
   154  148  156 1   
   155  149  150 1   
   156  149  157 1   
   157  149  158 1   
   158  150  151 1   
   159  150  152 1   
   160  159  160 1   
   161  159  168 1   
   162  160  161 1   
   163  160  163 1   
   164  160  169 1   
   165  161  162 2   
   166  161  174 1   
   167  163  164 1   
   168  163  170 1   
   169  163  171 1   
   170  164  165 1   
   171  164  172 1   
   172  164  173 1   
   173  165  166 1   
   174  165  167 1   
   175  174  175 1   
   176  174  179 1   
   177  175  176 1   
   178  175  177 1   
   179  175  178 1   
   180  181  182 1   
   181  181  183 1   
@<TRIPOS>SUBSTRUCTURE
     1 MOL         1 TEMP              0 ****  ****    0 ROOT
