@<TRIPOS>MOLECULE
MOL
  189   185     1     0     0
SMALL
resp


@<TRIPOS>ATOM
      1 C1          0.2830    2.2720    5.8620 c3        1 MOL     -0.298719
      2 C2         -0.1710    2.2090    4.4140 c         1 MOL      0.768810
      3 O1          0.5430    2.5490    3.4710 o         1 MOL     -0.666500
      4 H1         -0.5190    2.6810    6.4770 hc        1 MOL      0.071419
      5 H2          0.5310    1.2690    6.2090 hc        1 MOL      0.071419
      6 H3          1.1630    2.9120    5.9400 hc        1 MOL      0.071419
      7 N1         -1.3300    1.6000    4.2170 n         1 MOL     -0.587857
      8 C3         -1.8930    1.4180    2.8570 c3        1 MOL      0.102029
      9 C4         -2.2320    2.7420    2.1270 c         1 MOL      0.413498
     10 O2         -3.1600    3.4360    2.5140 o         1 MOL     -0.561384
     11 C5         -3.1630    0.5260    2.9830 c3        1 MOL     -0.188274
     12 C6         -3.7670    0.1500    1.6300 c         1 MOL      0.748217
     13 O3         -4.9030   -0.3980    1.6910 o         1 MOL     -0.686474
     14 O4         -3.1940    0.5570    0.5820 o         1 MOL     -0.686474
     15 H4         -1.9090    1.3960    5.0190 hn        1 MOL      0.331215
     16 H5         -1.1340    1.0330    2.1840 h1        1 MOL      0.052897
     17 H6         -3.9440    0.9650    3.6090 hc        1 MOL      0.056767
     18 H7         -2.9200   -0.4350    3.4560 hc        1 MOL      0.056767
     19 N2         -1.3850    3.1720    1.1890 n         1 MOL     -0.071816
     20 C7         -1.4080    4.5180    0.5600 c3        1 MOL      0.027970
     21 C8         -2.3380    4.8000   -0.6410 c         1 MOL      0.568133
     22 O5         -2.3750    5.9070   -1.2660 o         1 MOL     -0.574544
     23 C9          0.1360    4.7960    0.2700 c3        1 MOL     -0.158028
     24 C10         0.6450    6.2450    0.3670 c3        1 MOL     -0.088976
     25 C11         1.1570    6.5730    1.7370 c3        1 MOL      0.251554
     26 C12         0.1620    6.3780    2.9200 c3        1 MOL     -0.034055
     27 N3          0.8660    6.6570    4.2120 n4        1 MOL     -0.428891
     28 H8         -0.8770    2.4670    0.6800 hn        1 MOL      0.109657
     29 H9         -1.7430    5.1620    1.3770 h1        1 MOL     -0.006708
     30 H10         0.2900    4.4580   -0.7470 hc        1 MOL      0.103481
     31 H11         0.7920    4.2860    0.9840 hc        1 MOL      0.103481
     32 H12        -0.2150    6.8570    0.1090 hc        1 MOL      0.015304
     33 H13         1.4850    6.4280   -0.3120 hc        1 MOL      0.015304
     34 H14         1.4600    7.6100    1.7290 hc        1 MOL     -0.047164
     35 H15         2.0560    5.9780    1.8970 hc        1 MOL     -0.047164
     36 H16        -0.1990    5.3440    3.0010 hx        1 MOL      0.110208
     37 H17        -0.6020    7.1210    2.6940 hx        1 MOL      0.110208
     38 H18         0.2230    6.8230    4.9610 hn        1 MOL      0.338546
     39 H19         1.3450    5.7970    4.4350 hn        1 MOL      0.338546
     40 H20         1.5460    7.3970    4.1120 hn        1 MOL      0.338546
     41 N4         -3.2320    3.8680   -0.8740 n         1 MOL     -0.409747
     42 C13        -4.3450    4.0660   -1.8200 c3        1 MOL     -0.052885
     43 C14        -5.6720    3.3220   -1.3390 c         1 MOL      0.430474
     44 O6         -6.7130    3.5850   -1.8470 o         1 MOL     -0.506939
     45 C15        -3.8420    3.5400   -3.1620 c3        1 MOL     -0.227841
     46 C16        -3.0950    2.1910   -3.1900 c         1 MOL      0.791641
     47 O7         -2.4500    1.9820   -4.2200 o         1 MOL     -0.715510
     48 O8         -3.2270    1.2840   -2.3540 o         1 MOL     -0.715510
     49 H21        -3.0350    3.0030   -0.3920 hn        1 MOL      0.147380
     50 H22        -4.4820    5.1440   -1.9130 h1        1 MOL      0.147412
     51 H23        -3.2160    4.2850   -3.6580 hc        1 MOL      0.075893
     52 H24        -4.6820    3.4040   -3.8360 hc        1 MOL      0.075893
     53 N5         -5.5750    2.5900   -0.2370 n         1 MOL     -0.182865
     54 C17        -6.7270    2.0220    0.4160 c3        1 MOL     -0.256604
     55 C18        -7.1170    0.6880   -0.2810 c         1 MOL      0.580864
     56 O9         -8.3370    0.3520   -0.3140 o         1 MOL     -0.597089
     57 H25        -4.6260    2.3420   -0.0210 hn        1 MOL      0.216192
     58 H26        -7.5560    2.7170    0.3060 h1        1 MOL      0.134524
     59 H27        -6.5220    1.9480    1.4850 h1        1 MOL      0.134524
     60 N6         -6.1260   -0.0580   -0.9300 n         1 MOL     -0.283345
     61 C19        -6.5920   -1.2490   -1.7060 c3        1 MOL     -0.148499
     62 C20        -6.7270   -2.5860   -0.9630 c         1 MOL      0.446785
     63 O10        -6.8700   -3.7030   -1.4610 o         1 MOL     -0.500552
     64 C21        -5.8260   -1.4260   -2.9700 c3        1 MOL     -0.133557
     65 C22        -4.3400   -1.6860   -2.7730 c         1 MOL      0.727191
     66 O11        -3.5840   -1.9150   -3.7440 o         1 MOL     -0.697631
     67 O12        -3.9180   -1.8830   -1.6360 o         1 MOL     -0.697631
     68 H28        -5.1910    0.3070   -0.8060 hn        1 MOL      0.241838
     69 H29        -7.5580   -0.9360   -2.0920 h1        1 MOL      0.159406
     70 H30        -5.9700   -0.6760   -3.7570 hc        1 MOL      0.060195
     71 H31        -6.1930   -2.3270   -3.4620 hc        1 MOL      0.060195
     72 N7         -6.6770   -2.5070    0.3660 n         1 MOL     -0.264257
     73 C23        -6.7140   -3.6400    1.2810 c3        1 MOL     -0.181025
     74 C24        -5.4240   -4.3980    1.4370 c         1 MOL      0.545045
     75 O13        -5.3640   -5.5290    1.8860 o         1 MOL     -0.562691
     76 H32        -6.6170   -1.6390    0.8770 hn        1 MOL      0.293625
     77 H33        -7.4980   -4.3200    0.9460 h1        1 MOL      0.100331
     78 H34        -7.0110   -3.2630    2.2610 h1        1 MOL      0.100331
     79 N8         -4.3130   -3.8020    0.9430 n         1 MOL     -0.134377
     80 C25        -2.9410   -4.3490    0.8180 c3        1 MOL     -0.521619
     81 C26        -1.8250   -3.3190    0.9900 c         1 MOL      0.950236
     82 O14        -1.9540   -2.2160    0.5260 o         1 MOL     -0.746628
     83 C27        -2.7420   -5.1350   -0.5670 c3        1 MOL      0.522817
     84 C28        -3.3390   -6.5330   -0.5720 c3        1 MOL     -0.583207
     85 O15        -3.3420   -4.5180   -1.6830 oh        1 MOL     -0.626132
     86 H35        -4.4190   -2.8610    0.5850 hn        1 MOL      0.128098
     87 H36        -2.7890   -5.0790    1.6080 h1        1 MOL      0.161524
     88 H37        -1.7070   -5.1880   -0.9060 h1        1 MOL     -0.044444
     89 H38        -3.5490   -3.6210   -1.3970 ho        1 MOL      0.478683
     90 H39        -4.4100   -6.3470   -0.5510 hc        1 MOL      0.155342
     91 H40        -3.1640   -7.1040   -1.4790 hc        1 MOL      0.155342
     92 H41        -2.9710   -7.0840    0.3000 hc        1 MOL      0.155342
     93 N9         -0.7000   -3.7640    1.4740 n         1 MOL     -0.697210
     94 C29         0.5390   -3.0050    1.7310 c3        1 MOL     -0.023918
     95 C30         1.7780   -3.5630    1.0340 c         1 MOL      0.631103
     96 O16         2.0630   -4.7310    1.2360 o         1 MOL     -0.581730
     97 C31         0.7930   -2.7820    3.2720 c3        1 MOL      0.059435
     98 C32        -0.3860   -2.2780    4.2150 c3        1 MOL      0.624632
     99 C33         1.9850   -1.9560    3.5000 c3        1 MOL     -0.652712
    100 C34        -0.2580   -2.5420    5.7050 c3        1 MOL     -0.368897
    101 H42        -0.6870   -4.6930    1.8720 hn        1 MOL      0.330225
    102 H43         0.3350   -2.0430    1.2710 h1        1 MOL      0.072521
    103 H44         0.9570   -3.7300    3.7830 hc        1 MOL      0.029197
    104 H45        -1.2600   -2.8440    3.8800 hc        1 MOL     -0.147028
    105 H46        -0.6680   -1.2480    4.0140 hc        1 MOL     -0.147028
    106 H47         2.2280   -1.9240    4.5640 hc        1 MOL      0.136396
    107 H48         2.9120   -2.2600    3.0110 hc        1 MOL      0.136396
    108 H49         1.8100   -0.8960    3.3260 hc        1 MOL      0.136396
    109 H50        -0.0810   -3.6190    5.7800 hc        1 MOL      0.069012
    110 H51         0.6030   -2.0380    6.1320 hc        1 MOL      0.069012
    111 H52        -1.1810   -2.1360    6.1210 hc        1 MOL      0.069012
    112 N10         2.4330   -2.7870    0.2390 n         1 MOL     -0.308160
    113 C35         3.6100   -3.1410   -0.5890 c3        1 MOL     -0.116863
    114 C36         4.9720   -2.7010    0.0540 c         1 MOL      0.329632
    115 O17         4.9200   -1.8170    0.8390 o         1 MOL     -0.306248
    116 C37         3.4620   -2.4530   -2.0230 c3        1 MOL      0.272512
    117 C38         2.4440   -3.1210   -2.9360 c3        1 MOL     -0.455502
    118 O18         3.2400   -1.1180   -2.0350 oh        1 MOL     -0.622805
    119 H53         2.1250   -1.8340    0.1400 hn        1 MOL      0.357122
    120 H54         3.6090   -4.2270   -0.6900 h1        1 MOL      0.091918
    121 H55         4.4350   -2.6150   -2.4800 h1        1 MOL     -0.005651
    122 H56         2.3300   -0.8430   -1.9400 ho        1 MOL      0.402833
    123 H57         1.5260   -3.0810   -2.3610 hc        1 MOL      0.131864
    124 H58         2.2100   -2.5830   -3.8580 hc        1 MOL      0.131864
    125 H59         2.7270   -4.1470   -3.1810 hc        1 MOL      0.131864
    126 N11         6.1060   -3.1910   -0.3780 n         1 MOL     -0.184951
    127 C39         7.4270   -2.6720   -0.0750 c3        1 MOL     -0.315755
    128 C40         7.7010   -1.1680   -0.3390 c         1 MOL      0.562844
    129 O19         8.3640   -0.4940    0.4540 o         1 MOL     -0.491586
    130 C41         8.5180   -3.5130   -0.7840 c3        1 MOL      0.266067
    131 C42         8.6590   -5.0030   -0.2720 c3        1 MOL     -0.425262
    132 O20         8.3370   -3.5360   -2.1290 oh        1 MOL     -0.600346
    133 H60         6.0670   -4.0060   -0.9750 hn        1 MOL      0.249346
    134 H61         7.6180   -2.8510    0.9840 h1        1 MOL      0.148745
    135 H62         9.4160   -2.9280   -0.5540 h1        1 MOL      0.054896
    136 H63         8.8400   -4.3290   -2.3120 ho        1 MOL      0.409500
    137 H64         8.7470   -4.9340    0.8090 hc        1 MOL      0.124677
    138 H65         7.7940   -5.6390   -0.4780 hc        1 MOL      0.124677
    139 H66         9.6230   -5.4550   -0.5090 hc        1 MOL      0.124677
    140 N12         7.0810   -0.6480   -1.4310 n         1 MOL     -0.370354
    141 C43         6.8880    0.8060   -1.6090 c3        1 MOL     -0.053094
    142 C44         6.2460    1.5180   -0.4190 c         1 MOL      0.275612
    143 O21         6.6820    2.5220    0.0410 o         1 MOL     -0.489156
    144 C45         6.1330    0.9850   -2.8960 c3        1 MOL     -0.086983
    145 C46         5.8470    2.4520   -3.0740 c3        1 MOL      0.134908
    146 C47         5.1670    2.7440   -4.4440 c3        1 MOL     -0.124674
    147 C48         4.7900    4.1770   -4.6750 c3        1 MOL      0.184753
    148 N13         3.9890    4.3770   -5.9080 n4        1 MOL     -0.436856
    149 H67         6.6610   -1.2940   -2.0870 hn        1 MOL      0.259991
    150 H68         7.8530    1.2910   -1.7250 h1        1 MOL      0.097288
    151 H69         5.1830    0.4560   -2.9590 hc        1 MOL      0.042235
    152 H70         6.7810    0.6360   -3.7070 hc        1 MOL      0.042235
    153 H71         6.7430    3.0710   -3.0440 hc        1 MOL     -0.014860
    154 H72         5.1920    2.8100   -2.2710 hc        1 MOL     -0.014860
    155 H73         4.2540    2.1710   -4.3050 hc        1 MOL      0.027750
    156 H74         5.8230    2.3990   -5.2450 hc        1 MOL      0.027750
    157 H75         5.6510    4.8360   -4.7240 hx        1 MOL      0.058434
    158 H76         4.3030    4.5720   -3.7910 hx        1 MOL      0.058434
    159 H77         4.5480    4.0950   -6.6980 hn        1 MOL      0.344984
    160 H78         3.2090    3.7500   -6.0450 hn        1 MOL      0.344984
    161 H79         3.6450    5.3250   -5.9700 hn        1 MOL      0.344984
    162 N14         5.1370    0.8750    0.0230 n         1 MOL      0.204143
    163 C49         4.2760    1.5040    1.0590 c3        1 MOL     -0.333016
    164 C50         4.8930    1.2820    2.4250 c         1 MOL      0.458782
    165 O22         4.7260    2.1580    3.2920 o         1 MOL     -0.579291
    166 C51         2.8570    0.9870    0.9200 c3        1 MOL      0.146573
    167 C52         2.2480    1.5410   -0.3440 c3        1 MOL     -0.221374
    168 C53         0.9450    0.6740   -0.6130 c         1 MOL      0.553312
    169 O23        -0.1680    1.2630   -0.5360 o         1 MOL     -0.644855
    170 O24         0.8840   -0.5230   -0.8930 o         1 MOL     -0.644855
    171 H80         4.7630    0.0570   -0.4500 hn        1 MOL      0.336142
    172 H81         4.3010    2.5800    0.9140 h1        1 MOL      0.120479
    173 H82         2.2800    1.2870    1.8000 hc        1 MOL      0.029830
    174 H83         2.9820   -0.0910    0.8380 hc        1 MOL      0.029830
    175 H84         2.9490    1.4310   -1.1750 hc        1 MOL      0.018024
    176 H85         2.0750    2.6120   -0.2860 hc        1 MOL      0.018024
    177 N15         5.6630    0.2480    2.6180 n         1 MOL     -0.102195
    178 C54         6.5490    0.1790    3.8210 c3        1 MOL     -0.321145
    179 H86         7.5750   -0.0130    3.5060 h1        1 MOL      0.125510
    180 H87         6.5060    1.1260    4.3600 h1        1 MOL      0.125510
    181 H88         6.2140   -0.6270    4.4740 h1        1 MOL      0.125510
    182 H89         5.6370   -0.4450    1.8790 hn        1 MOL      0.066817
    183 Ca1        -1.8200   -0.4640   -1.2910 Ca        1 MOL      1.717798
    184 O25        -1.1370   -2.6220   -2.6070 oh        1 MOL     -0.850683
    185 H90        -1.9370   -2.6110   -3.1310 ho        1 MOL      0.390670
    186 H91        -0.7130   -3.4470   -2.8550 ho        1 MOL      0.390670
    187 O26        -0.7200    0.1940   -3.5690 oh        1 MOL     -0.850683
    188 H92        -1.1840    0.9500   -3.9210 ho        1 MOL      0.390670
    189 H93        -0.2640   -0.1830   -4.3190 ho        1 MOL      0.390670
@<TRIPOS>BOND
     1    1    2 1   
     2    1    4 1   
     3    1    5 1   
     4    1    6 1   
     5    2    3 2   
     6    2    7 1   
     7    7    8 1   
     8    7   15 1   
     9    8    9 1   
    10    8   11 1   
    11    8   16 1   
    12    9   10 2   
    13    9   19 1   
    14   11   12 1   
    15   11   17 1   
    16   11   18 1   
    17   12   13 1   
    18   12   14 1   
    19   19   20 1   
    20   19   28 1   
    21   20   21 1   
    22   20   23 1   
    23   20   29 1   
    24   21   22 2   
    25   21   41 1   
    26   23   24 1   
    27   23   30 1   
    28   23   31 1   
    29   24   25 1   
    30   24   32 1   
    31   24   33 1   
    32   25   26 1   
    33   25   34 1   
    34   25   35 1   
    35   26   27 1   
    36   26   36 1   
    37   26   37 1   
    38   27   38 1   
    39   27   39 1   
    40   27   40 1   
    41   41   42 1   
    42   41   49 1   
    43   42   43 1   
    44   42   45 1   
    45   42   50 1   
    46   43   44 2   
    47   43   53 1   
    48   45   46 1   
    49   45   51 1   
    50   45   52 1   
    51   46   47 1   
    52   46   48 1   
    53   53   54 1   
    54   53   57 1   
    55   54   55 1   
    56   54   58 1   
    57   54   59 1   
    58   55   56 2   
    59   55   60 1   
    60   60   61 1   
    61   60   68 1   
    62   61   62 1   
    63   61   64 1   
    64   61   69 1   
    65   62   63 2   
    66   62   72 1   
    67   64   65 1   
    68   64   70 1   
    69   64   71 1   
    70   65   66 1   
    71   65   67 1   
    72   72   73 1   
    73   72   76 1   
    74   73   74 1   
    75   73   77 1   
    76   73   78 1   
    77   74   75 2   
    78   74   79 1   
    79   79   80 1   
    80   79   86 1   
    81   80   81 1   
    82   80   83 1   
    83   80   87 1   
    84   81   82 2   
    85   81   93 1   
    86   83   84 1   
    87   83   85 1   
    88   83   88 1   
    89   84   90 1   
    90   84   91 1   
    91   84   92 1   
    92   85   89 1   
    93   93   94 1   
    94   93  101 1   
    95   94   95 1   
    96   94   97 1   
    97   94  102 1   
    98   95   96 2   
    99   95  112 1   
   100   97   98 1   
   101   97   99 1   
   102   97  103 1   
   103   98  100 1   
   104   98  104 1   
   105   98  105 1   
   106   99  106 1   
   107   99  107 1   
   108   99  108 1   
   109  100  109 1   
   110  100  110 1   
   111  100  111 1   
   112  112  113 1   
   113  112  119 1   
   114  113  114 1   
   115  113  116 1   
   116  113  120 1   
   117  114  115 2   
   118  114  126 1   
   119  116  117 1   
   120  116  118 1   
   121  116  121 1   
   122  117  123 1   
   123  117  124 1   
   124  117  125 1   
   125  118  122 1   
   126  126  127 1   
   127  126  133 1   
   128  127  128 1   
   129  127  130 1   
   130  127  134 1   
   131  128  129 2   
   132  128  140 1   
   133  130  131 1   
   134  130  132 1   
   135  130  135 1   
   136  131  137 1   
   137  131  138 1   
   138  131  139 1   
   139  132  136 1   
   140  140  141 1   
   141  140  149 1   
   142  141  142 1   
   143  141  144 1   
   144  141  150 1   
   145  142  143 2   
   146  142  162 1   
   147  144  145 1   
   148  144  151 1   
   149  144  152 1   
   150  145  146 1   
   151  145  153 1   
   152  145  154 1   
   153  146  147 1   
   154  146  155 1   
   155  146  156 1   
   156  147  148 1   
   157  147  157 1   
   158  147  158 1   
   159  148  159 1   
   160  148  160 1   
   161  148  161 1   
   162  162  163 1   
   163  162  171 1   
   164  163  164 1   
   165  163  166 1   
   166  163  172 1   
   167  164  165 2   
   168  164  177 1   
   169  166  167 1   
   170  166  173 1   
   171  166  174 1   
   172  167  168 1   
   173  167  175 1   
   174  167  176 1   
   175  168  169 1   
   176  168  170 1   
   177  177  178 1   
   178  177  182 1   
   179  178  179 1   
   180  178  180 1   
   181  178  181 1   
   182  184  185 1   
   183  184  186 1   
   184  187  188 1   
   185  187  189 1   
@<TRIPOS>SUBSTRUCTURE
     1 MOL         1 TEMP              0 ****  ****    0 ROOT
