@<TRIPOS>MOLECULE
MOL
  189   185     1     0     0
SMALL
resp


@<TRIPOS>ATOM
      1 C1         -0.0170   -3.0060    6.2910 c3        1 MOL     -0.381488
      2 C2          0.7240   -2.7420    4.9910 c         1 MOL      0.759127
      3 O1          0.7960   -1.6080    4.5750 o         1 MOL     -0.611388
      4 H1         -1.0330   -3.3300    6.0690 hc        1 MOL      0.099091
      5 H2          0.4990   -3.7860    6.8520 hc        1 MOL      0.099091
      6 H3         -0.0500   -2.0920    6.8840 hc        1 MOL      0.099091
      7 N1          1.2960   -3.7320    4.2820 n         1 MOL     -0.685080
      8 C3          2.1130   -3.5060    3.0620 c3        1 MOL      0.332387
      9 C4          2.1510   -4.6630    2.0360 c         1 MOL      0.338463
     10 O2          2.7970   -5.7000    2.2960 o         1 MOL     -0.555057
     11 C5          3.5020   -3.1060    3.4630 c3        1 MOL     -0.253528
     12 C6          4.3400   -2.4290    2.4140 c         1 MOL      0.838622
     13 O3          5.4750   -1.9900    2.7320 o         1 MOL     -0.726633
     14 O4          3.8110   -2.1800    1.2870 o         1 MOL     -0.726633
     15 H4          0.9970   -4.6730    4.5120 hn        1 MOL      0.321045
     16 H5          1.7410   -2.5850    2.6080 h1        1 MOL      0.046935
     17 H6          4.1020   -3.9450    3.8020 hc        1 MOL      0.045838
     18 H7          3.4410   -2.4180    4.3020 hc        1 MOL      0.045838
     19 N2          1.7050   -4.3980    0.8300 n         1 MOL     -0.089495
     20 C7          1.6020   -5.4210   -0.2290 c3        1 MOL     -0.061597
     21 C8          2.8840   -5.4360   -1.1250 c         1 MOL      0.671801
     22 O5          3.2950   -6.5700   -1.4350 o         1 MOL     -0.601993
     23 C9          0.2700   -5.2340   -1.0310 c3        1 MOL      0.254766
     24 C10        -0.9430   -5.4010   -0.0630 c3        1 MOL      0.032716
     25 C11         0.2090   -6.2710   -2.1730 c3        1 MOL     -0.445037
     26 C12        -2.2880   -4.8670   -0.6070 c3        1 MOL     -0.086044
     27 H8          1.4500   -3.4390    0.6310 hn        1 MOL     -0.027381
     28 H9          1.5430   -6.4170    0.2050 h1        1 MOL      0.047853
     29 H10         0.2940   -4.2410   -1.4840 hc        1 MOL      0.007372
     30 H11        -0.7210   -4.7770    0.8050 hc        1 MOL     -0.013148
     31 H12        -1.0800   -6.4020    0.3490 hc        1 MOL     -0.013148
     32 H13         0.9250   -5.9820   -2.9490 hc        1 MOL      0.097295
     33 H14         0.3670   -7.2580   -1.7260 hc        1 MOL      0.097295
     34 H15        -0.6800   -6.2200   -2.8050 hc        1 MOL      0.097295
     35 H16        -2.7880   -5.6930   -1.1210 hc        1 MOL      0.013096
     36 H17        -2.9480   -4.4790    0.1640 hc        1 MOL      0.013096
     37 H18        -2.2110   -4.0320   -1.2970 hc        1 MOL      0.013096
     38 N3          3.5930   -4.3190   -1.3790 n         1 MOL     -0.519721
     39 C13         4.4400   -4.0840   -2.5920 c3        1 MOL      0.005720
     40 C14         5.8000   -3.4380   -2.1320 c         1 MOL      0.462609
     41 O6          6.6980   -3.2520   -2.9420 o         1 MOL     -0.547063
     42 C15         3.5620   -3.2390   -3.5940 c3        1 MOL     -0.171293
     43 C16         3.0190   -1.9060   -3.0270 c         1 MOL      0.789840
     44 O7          3.5740   -1.3910   -2.0220 o         1 MOL     -0.718299
     45 O8          2.0420   -1.3750   -3.5920 o         1 MOL     -0.718299
     46 H19         3.3780   -3.4470   -0.9170 hn        1 MOL      0.314155
     47 H20         4.5900   -5.0400   -3.0870 h1        1 MOL      0.090447
     48 H21         2.7200   -3.9070   -3.7620 hc        1 MOL      0.045752
     49 H22         4.1080   -3.0860   -4.5230 hc        1 MOL      0.045752
     50 N4          5.9300   -2.9950   -0.8430 n         1 MOL     -0.231472
     51 C17         7.2140   -2.4860   -0.3850 c3        1 MOL     -0.199611
     52 C18         7.6710   -1.0390   -0.9350 c         1 MOL      0.443597
     53 O9          8.8490   -0.7400   -0.8150 o         1 MOL     -0.588316
     54 H23         5.1560   -3.1150   -0.2050 hn        1 MOL      0.161474
     55 H24         7.9540   -3.2740   -0.4960 h1        1 MOL      0.114255
     56 H25         7.0650   -2.3680    0.6890 h1        1 MOL      0.114255
     57 N5          6.8080   -0.2550   -1.5040 n         1 MOL     -0.067512
     58 C19         7.1090    1.0720   -1.9890 c3        1 MOL     -0.005998
     59 C20         7.4720    2.1510   -0.9690 c         1 MOL      0.399816
     60 O10         8.1150    3.1680   -1.3430 o         1 MOL     -0.549525
     61 C21         5.9440    1.6220   -2.8560 c3        1 MOL     -0.208603
     62 C22         4.4720    1.7540   -2.3440 c         1 MOL      0.854587
     63 O11         4.2510    1.4220   -1.1340 o         1 MOL     -0.713890
     64 O12         3.6010    2.0930   -3.1570 o         1 MOL     -0.713890
     65 H26         5.8740   -0.5680   -1.7080 hn        1 MOL      0.134593
     66 H27         7.9630    1.0210   -2.6670 h1        1 MOL      0.072915
     67 H28         5.9060    0.9620   -3.7240 hc        1 MOL      0.044143
     68 H29         6.2860    2.6020   -3.2030 hc        1 MOL      0.044143
     69 N6          7.0750    2.0650    0.2820 n         1 MOL     -0.228429
     70 C23         7.1640    3.0890    1.2090 c3        1 MOL     -0.067859
     71 C24         5.9410    4.0890    1.2180 c         1 MOL      0.502668
     72 O13         6.1960    5.2460    1.5820 o         1 MOL     -0.635912
     73 H30         6.6780    1.2290    0.6690 hn        1 MOL      0.275435
     74 H31         8.0500    3.7080    1.0930 h1        1 MOL      0.059661
     75 H32         7.1370    2.6860    2.2200 h1        1 MOL      0.059661
     76 N7          4.7950    3.7090    0.7080 n         1 MOL     -0.011766
     77 C25         3.5990    4.4460    0.6420 c3        1 MOL     -0.071133
     78 C26         2.3590    3.5520    0.9120 c         1 MOL      0.309047
     79 O14         2.5230    2.3330    0.8900 o         1 MOL     -0.304767
     80 C27         3.4870    5.1170   -0.7480 c3        1 MOL     -0.145597
     81 C28         4.3860    6.4040   -0.7380 c3        1 MOL     -0.174155
     82 C29         3.8970    7.3740   -1.7780 c         1 MOL      0.629888
     83 N8          4.7440    8.2240   -2.2660 n         1 MOL     -0.771039
     84 O15         2.6830    7.5610   -2.0050 o         1 MOL     -0.574694
     85 H33         4.7290    2.7100    0.5680 hn        1 MOL     -0.052348
     86 H34         3.5680    5.2720    1.3500 h1        1 MOL      0.052409
     87 H35         2.4500    5.4000   -0.9420 hc        1 MOL      0.082914
     88 H36         3.8740    4.5010   -1.5570 hc        1 MOL      0.082914
     89 H37         5.4130    6.1150   -0.9530 hc        1 MOL      0.101370
     90 H38         4.2790    6.9120    0.2280 hc        1 MOL      0.101370
     91 H39         5.7300    8.1790   -2.1010 hn        1 MOL      0.344331
     92 H40         4.3580    8.9620   -2.8380 hn        1 MOL      0.344331
     93 N9          1.1320    4.1250    1.0510 n         1 MOL     -0.264729
     94 C30        -0.0690    3.3570    1.4250 c3        1 MOL     -0.261903
     95 C31        -1.2080    3.5460    0.4350 c         1 MOL      0.519591
     96 O16        -1.8570    4.5900    0.4510 o         1 MOL     -0.552394
     97 C32        -0.6000    3.6050    2.9310 c3        1 MOL      0.333911
     98 C33        -1.5650    2.4990    3.3180 c3        1 MOL     -0.225289
     99 C34         0.5940    3.3710    3.8180 c3        1 MOL     -0.225289
    100 H41         1.0940    5.1340    1.1290 hn        1 MOL      0.275849
    101 H42         0.2310    2.3040    1.4580 h1        1 MOL      0.233539
    102 H43        -1.0080    4.6030    3.1030 hc        1 MOL     -0.032483
    103 H44        -2.0880    2.7590    4.2400 hc        1 MOL      0.027774
    104 H45        -2.3020    2.5170    2.5190 hc        1 MOL      0.027774
    105 H46        -1.0440    1.5390    3.3420 hc        1 MOL      0.027774
    106 H47         1.1770    2.5320    3.4670 hc        1 MOL      0.027774
    107 H48         1.2890    4.1980    3.6450 hc        1 MOL      0.027774
    108 H49         0.3360    3.4420    4.8730 hc        1 MOL      0.027774
    109 N10        -1.5770    2.4960   -0.3760 n         1 MOL     -0.321644
    110 C35        -2.7290    2.5060   -1.2390 c3        1 MOL      0.067069
    111 C36        -4.0500    2.2830   -0.4940 c         1 MOL      0.366895
    112 O17        -4.0280    1.6240    0.5550 o         1 MOL     -0.266846
    113 C37        -2.3630    1.5260   -2.3940 c3        1 MOL     -0.262906
    114 C38        -3.3000    0.3230   -2.6830 c         1 MOL      0.659520
    115 N11        -2.8780   -0.9150   -2.7720 n         1 MOL     -0.709797
    116 O18        -4.4650    0.5480   -2.9680 o         1 MOL     -0.607438
    117 H50        -0.9160    1.7450   -0.5140 hn        1 MOL      0.237155
    118 H51        -2.8680    3.4940   -1.6770 h1        1 MOL      0.066432
    119 H52        -1.3130    1.2770   -2.5050 hc        1 MOL      0.108593
    120 H53        -2.4190    2.0890   -3.3330 hc        1 MOL      0.108593
    121 H54        -1.8900   -1.0840   -2.6360 hn        1 MOL      0.364969
    122 H55        -3.4970   -1.6070   -3.1830 hn        1 MOL      0.364969
    123 N12        -5.2180    2.6380   -1.0460 n         1 MOL     -0.531312
    124 C39        -6.5730    2.4540   -0.5350 c3        1 MOL      0.437832
    125 C40        -6.7600    1.0720    0.0020 c         1 MOL      0.291542
    126 O19        -7.1900    1.0040    1.1570 o         1 MOL     -0.540559
    127 C41        -7.6030    2.6230   -1.6290 c3        1 MOL     -0.325989
    128 C42        -8.9920    2.3360   -1.1430 ca        1 MOL      0.151035
    129 C43        -9.7220    3.2290   -0.3460 ca        1 MOL     -0.205603
    130 C44        -9.5430    1.1160   -1.5300 ca        1 MOL     -0.205603
    131 C45       -10.9820    2.8550    0.2120 ca        1 MOL     -0.259195
    132 C46       -10.8380    0.8100   -1.0510 ca        1 MOL     -0.259195
    133 C47       -11.5310    1.5930   -0.1710 ca        1 MOL      0.375017
    134 O20       -12.7690    1.1630    0.2600 oh        1 MOL     -0.555844
    135 H56        -5.1830    3.3170   -1.7830 hn        1 MOL      0.278924
    136 H57        -6.8140    3.2320    0.1990 h1        1 MOL     -0.013110
    137 H58        -7.3940    1.9350   -2.4500 hc        1 MOL      0.085918
    138 H59        -7.6230    3.6930   -1.8710 hc        1 MOL      0.085918
    139 H60        -9.1770    4.1370   -0.0930 ha        1 MOL      0.142567
    140 H61        -9.0140    0.3790   -2.1080 ha        1 MOL      0.142567
    141 H62       -11.5000    3.4850    0.9230 ha        1 MOL      0.142714
    142 H63       -11.3060   -0.1450   -1.2450 ha        1 MOL      0.142714
    143 H64       -12.9400    0.2570    0.0200 ho        1 MOL      0.381347
    144 N13        -6.3820    0.0340   -0.7600 n         1 MOL      0.035269
    145 C48        -6.4380   -1.4070   -0.3660 c3        1 MOL     -0.111222
    146 C49        -5.4600   -1.8190    0.8090 c         1 MOL      0.297063
    147 O21        -5.7750   -2.8410    1.4260 o         1 MOL     -0.538961
    148 C50        -6.1710   -2.3440   -1.6210 c3        1 MOL      0.057144
    149 C51        -7.0380   -2.0120   -2.7810 c3        1 MOL     -0.345579
    150 C52        -6.8680   -2.9890   -3.9700 c         1 MOL      0.760419
    151 O22        -5.9050   -2.9260   -4.7540 o         1 MOL     -0.740369
    152 O23        -7.8010   -3.7860   -4.1810 o         1 MOL     -0.740369
    153 H65        -6.0480    0.1270   -1.7030 hn        1 MOL      0.186635
    154 H66        -7.4520   -1.6330   -0.0380 h1        1 MOL      0.100277
    155 H67        -6.3940   -3.3960   -1.3910 hc        1 MOL      0.027699
    156 H68        -5.1310   -2.2700   -1.9070 hc        1 MOL      0.027699
    157 H69        -6.8380   -1.0060   -3.1620 hc        1 MOL      0.059661
    158 H70        -8.0520   -2.0540   -2.3970 hc        1 MOL      0.059661
    159 N14        -4.5440   -0.9730    1.2280 n         1 MOL      0.063028
    160 C53        -3.5660   -1.2070    2.3250 c3        1 MOL      0.071659
    161 C54        -4.0770   -0.4750    3.5460 c         1 MOL      0.331567
    162 O24        -4.0290   -0.9250    4.6860 o         1 MOL     -0.563196
    163 C55        -2.0850   -0.7710    1.9430 c3        1 MOL     -0.040275
    164 C56        -1.4930   -1.6430    0.8540 c3        1 MOL     -0.128621
    165 C57        -0.0670   -1.1250    0.5250 c         1 MOL      0.786649
    166 O25         0.7520   -1.9530    0.1240 o         1 MOL     -0.721872
    167 O26         0.2440    0.0670    0.5180 o         1 MOL     -0.721872
    168 H71        -4.4610   -0.0230    0.8890 hn        1 MOL     -0.109184
    169 H72        -3.5100   -2.2690    2.5600 h1        1 MOL      0.050251
    170 H73        -1.4550   -0.8060    2.8250 hc        1 MOL      0.059772
    171 H74        -2.0850    0.2420    1.5570 hc        1 MOL      0.059772
    172 H75        -2.1460   -1.6510   -0.0200 hc        1 MOL      0.012734
    173 H76        -1.5330   -2.6770    1.1900 hc        1 MOL      0.012734
    174 N15        -4.6090    0.7150    3.3460 n         1 MOL      0.068227
    175 C58        -5.2970    1.5550    4.2950 c3        1 MOL     -0.186860
    176 H77        -6.3550    1.6050    4.0350 h1        1 MOL      0.066838
    177 H78        -5.1890    1.1370    5.2960 h1        1 MOL      0.066838
    178 H79        -4.8700    2.5570    4.2710 h1        1 MOL      0.066838
    179 H80        -4.7290    0.9880    2.3830 hn        1 MOL      0.039524
    180 Ca1         2.7050   -0.1970    0.0910 Ca        1 MOL      1.680183
    181 O27         2.2100    0.0950    2.8320 oh        1 MOL     -0.915510
    182 H81         1.8480   -0.4750    3.5080 ho        1 MOL      0.425942
    183 H82         2.2160    0.9680    3.2300 ho        1 MOL      0.425942
    184 O28         1.2860    1.0270   -2.1500 oh        1 MOL     -0.915510
    185 H83         2.0070    1.6050   -2.4000 ho        1 MOL      0.425942
    186 H84         1.2160    0.4030   -2.8700 ho        1 MOL      0.425942
    187 O29         4.9690    0.6000    1.8880 oh        1 MOL     -0.915510
    188 H85         4.5770    0.9730    2.6840 ho        1 MOL      0.425942
    189 H86         5.3260   -0.2460    2.1780 ho        1 MOL      0.425942
@<TRIPOS>BOND
     1    1    2 1   
     2    1    4 1   
     3    1    5 1   
     4    1    6 1   
     5    2    3 2   
     6    2    7 1   
     7    7    8 1   
     8    7   15 1   
     9    8    9 1   
    10    8   11 1   
    11    8   16 1   
    12    9   10 2   
    13    9   19 1   
    14   11   12 1   
    15   11   17 1   
    16   11   18 1   
    17   12   13 1   
    18   12   14 1   
    19   19   20 1   
    20   19   27 1   
    21   20   21 1   
    22   20   23 1   
    23   20   28 1   
    24   21   22 2   
    25   21   38 1   
    26   23   24 1   
    27   23   25 1   
    28   23   29 1   
    29   24   26 1   
    30   24   30 1   
    31   24   31 1   
    32   25   32 1   
    33   25   33 1   
    34   25   34 1   
    35   26   35 1   
    36   26   36 1   
    37   26   37 1   
    38   38   39 1   
    39   38   46 1   
    40   39   40 1   
    41   39   42 1   
    42   39   47 1   
    43   40   41 2   
    44   40   50 1   
    45   42   43 1   
    46   42   48 1   
    47   42   49 1   
    48   43   44 1   
    49   43   45 1   
    50   50   51 1   
    51   50   54 1   
    52   51   52 1   
    53   51   55 1   
    54   51   56 1   
    55   52   53 2   
    56   52   57 1   
    57   57   58 1   
    58   57   65 1   
    59   58   59 1   
    60   58   61 1   
    61   58   66 1   
    62   59   60 2   
    63   59   69 1   
    64   61   62 1   
    65   61   67 1   
    66   61   68 1   
    67   62   63 1   
    68   62   64 1   
    69   69   70 1   
    70   69   73 1   
    71   70   71 1   
    72   70   74 1   
    73   70   75 1   
    74   71   72 2   
    75   71   76 1   
    76   76   77 1   
    77   76   85 1   
    78   77   78 1   
    79   77   80 1   
    80   77   86 1   
    81   78   79 2   
    82   78   93 1   
    83   80   81 1   
    84   80   87 1   
    85   80   88 1   
    86   81   82 1   
    87   81   89 1   
    88   81   90 1   
    89   82   83 1   
    90   82   84 2   
    91   83   91 1   
    92   83   92 1   
    93   93   94 1   
    94   93  100 1   
    95   94   95 1   
    96   94   97 1   
    97   94  101 1   
    98   95   96 2   
    99   95  109 1   
   100   97   98 1   
   101   97   99 1   
   102   97  102 1   
   103   98  103 1   
   104   98  104 1   
   105   98  105 1   
   106   99  106 1   
   107   99  107 1   
   108   99  108 1   
   109  109  110 1   
   110  109  117 1   
   111  110  111 1   
   112  110  113 1   
   113  110  118 1   
   114  111  112 2   
   115  111  123 1   
   116  113  114 1   
   117  113  119 1   
   118  113  120 1   
   119  114  115 1   
   120  114  116 2   
   121  115  121 1   
   122  115  122 1   
   123  123  124 1   
   124  123  135 1   
   125  124  125 1   
   126  124  127 1   
   127  124  136 1   
   128  125  126 2   
   129  125  144 1   
   130  127  128 1   
   131  127  137 1   
   132  127  138 1   
   133  128  129 ar  
   134  128  130 ar  
   135  129  131 ar  
   136  129  139 1   
   137  130  132 ar  
   138  130  140 1   
   139  131  133 ar  
   140  131  141 1   
   141  132  133 ar  
   142  132  142 1   
   143  133  134 1   
   144  134  143 1   
   145  144  145 1   
   146  144  153 1   
   147  145  146 1   
   148  145  148 1   
   149  145  154 1   
   150  146  147 2   
   151  146  159 1   
   152  148  149 1   
   153  148  155 1   
   154  148  156 1   
   155  149  150 1   
   156  149  157 1   
   157  149  158 1   
   158  150  151 1   
   159  150  152 1   
   160  159  160 1   
   161  159  168 1   
   162  160  161 1   
   163  160  163 1   
   164  160  169 1   
   165  161  162 2   
   166  161  174 1   
   167  163  164 1   
   168  163  170 1   
   169  163  171 1   
   170  164  165 1   
   171  164  172 1   
   172  164  173 1   
   173  165  166 1   
   174  165  167 1   
   175  174  175 1   
   176  174  179 1   
   177  175  176 1   
   178  175  177 1   
   179  175  178 1   
   180  181  182 1   
   181  181  183 1   
   182  184  185 1   
   183  184  186 1   
   184  187  188 1   
   185  187  189 1   
@<TRIPOS>SUBSTRUCTURE
     1 MOL         1 TEMP              0 ****  ****    0 ROOT
