@<TRIPOS>MOLECULE
MOL
  179   176     1     0     0
SMALL
resp


@<TRIPOS>ATOM
      1 C1          0.5990    3.8190    6.7300 c3        1 MOL     -0.304644
      2 C2          0.6490    3.3630    5.2770 c         1 MOL      0.735867
      3 O1          1.7960    3.3050    4.7530 o         1 MOL     -0.570462
      4 H1          0.1160    4.7950    6.7870 hc        1 MOL      0.074969
      5 H2          0.0310    3.0990    7.3180 hc        1 MOL      0.074969
      6 H3          1.6130    3.8930    7.1240 hc        1 MOL      0.074969
      7 N1         -0.5150    3.2040    4.6040 n         1 MOL     -0.628250
      8 C3         -0.6100    2.9600    3.1470 c3        1 MOL     -0.026042
      9 C4         -0.5180    4.2640    2.2650 c         1 MOL      0.695239
     10 O2         -0.9300    5.3250    2.6560 o         1 MOL     -0.554618
     11 C5         -1.9660    2.1630    2.9310 c3        1 MOL      0.183013
     12 C6         -2.0030    1.4570    1.5920 c         1 MOL      0.558587
     13 O3         -0.9270    1.3280    0.9940 o         1 MOL     -0.716327
     14 O4         -3.0180    0.9430    1.1310 o         1 MOL     -0.716327
     15 H4         -1.4220    3.1870    5.0480 hn        1 MOL      0.317773
     16 H5          0.2580    2.3210    2.9600 h1        1 MOL      0.065260
     17 H6         -2.7800    2.8770    2.9640 hc        1 MOL     -0.036931
     18 H7         -2.1330    1.4700    3.7580 hc        1 MOL     -0.036931
     19 N2         -0.0140    4.1240    1.0590 n         1 MOL     -0.477385
     20 C7          0.1650    5.1820    0.0140 c3        1 MOL     -0.274346
     21 C8         -1.1340    5.6460   -0.7530 c         1 MOL      0.603908
     22 O5         -1.2220    6.7460   -1.2400 o         1 MOL     -0.554559
     23 C9          1.2760    4.6490   -0.9180 c3        1 MOL      0.149896
     24 C10         1.9330    5.6850   -1.8440 c3        1 MOL      0.035265
     25 C11         3.1750    5.2660   -2.6370 c3        1 MOL     -0.068452
     26 C12         3.7840    6.4910   -3.3850 c3        1 MOL      0.135846
     27 N3          4.9180    6.1590   -4.1860 n4        1 MOL     -0.561511
     28 H8          0.2280    3.1710    0.8100 hn        1 MOL      0.294734
     29 H9          0.5580    6.0730    0.5080 h1        1 MOL      0.170759
     30 H10         0.9450    3.7820   -1.4970 hc        1 MOL      0.016390
     31 H11         2.0790    4.2640   -0.2830 hc        1 MOL      0.016390
     32 H12         2.2260    6.5740   -1.3010 hc        1 MOL     -0.009566
     33 H13         1.2520    6.0370   -2.6210 hc        1 MOL     -0.009566
     34 H14         2.8760    4.4390   -3.2870 hc        1 MOL      0.041095
     35 H15         3.8770    4.9010   -1.8840 hc        1 MOL      0.041095
     36 H16         4.1170    7.1360   -2.5780 hx        1 MOL      0.073705
     37 H17         3.0450    7.0870   -3.9260 hx        1 MOL      0.073705
     38 H18         4.5430    5.5200   -4.8670 hn        1 MOL      0.383406
     39 H19         5.3920    6.9340   -4.6290 hn        1 MOL      0.383406
     40 H20         5.6410    5.7680   -3.5970 hn        1 MOL      0.383406
     41 N4         -2.1520    4.7550   -0.9170 n         1 MOL     -0.353784
     42 C13        -3.3080    4.8920   -1.7860 c3        1 MOL      0.166708
     43 C14        -4.5760    4.6090   -0.9770 c         1 MOL      0.386335
     44 O6         -5.6100    5.2930   -1.0410 o         1 MOL     -0.528393
     45 C15        -3.2190    4.0270   -3.0530 c3        1 MOL     -0.325030
     46 C16        -2.8350    2.5600   -2.8640 c         1 MOL      0.734086
     47 O7         -2.7750    1.9650   -1.7440 o         1 MOL     -0.678388
     48 O8         -2.6480    1.8260   -3.8320 o         1 MOL     -0.678388
     49 H21        -2.0880    3.7890   -0.6420 hn        1 MOL      0.169401
     50 H22        -3.4200    5.9470   -2.0460 h1        1 MOL      0.063944
     51 H23        -2.5590    4.4430   -3.8150 hc        1 MOL      0.098374
     52 H24        -4.2010    4.0980   -3.5220 hc        1 MOL      0.098374
     53 N5         -4.5020    3.5440   -0.1380 n         1 MOL     -0.086641
     54 C17        -5.5720    3.2600    0.7680 c3        1 MOL     -0.272644
     55 C18        -6.3650    1.9620    0.3050 c         1 MOL      0.593854
     56 O9         -7.5170    1.7180    0.7200 o         1 MOL     -0.611037
     57 H25        -3.6450    3.0030   -0.0890 hn        1 MOL      0.131199
     58 H26        -6.3030    4.0730    0.7790 h1        1 MOL      0.131211
     59 H27        -5.0910    2.9930    1.7000 h1        1 MOL      0.131211
     60 N6         -5.7530    1.1180   -0.4880 n         1 MOL     -0.215281
     61 C19        -6.4860    0.0560   -1.2360 c3        1 MOL     -0.006753
     62 C20        -6.8170   -1.2160   -0.4120 c         1 MOL      0.458750
     63 O10        -7.3510   -2.1740   -0.9910 o         1 MOL     -0.539468
     64 C21        -5.6770   -0.3140   -2.4600 c3        1 MOL     -0.244122
     65 C22        -4.6740   -1.4470   -2.3500 c         1 MOL      0.557575
     66 N7         -4.9570   -2.4770   -3.0900 n         1 MOL     -0.605776
     67 O11        -3.6920   -1.3450   -1.6130 o         1 MOL     -0.531598
     68 H28        -4.7670    1.2400   -0.6510 hn        1 MOL      0.078259
     69 H29        -7.4640    0.4340   -1.5430 h1        1 MOL      0.119879
     70 H30        -5.0930    0.5710   -2.7140 hc        1 MOL      0.098268
     71 H31        -6.3930   -0.6100   -3.2270 hc        1 MOL      0.098268
     72 H32        -5.5260   -2.4660   -3.9200 hn        1 MOL      0.309249
     73 H33        -4.3550   -3.2880   -3.1340 hn        1 MOL      0.309249
     74 N8         -6.4460   -1.2750    0.8480 n         1 MOL     -0.236952
     75 C23        -6.6750   -2.3670    1.7990 c3        1 MOL     -0.254646
     76 C24        -5.5090   -3.2310    2.1570 c         1 MOL      0.534193
     77 O12        -5.6600   -4.0100    3.1370 o         1 MOL     -0.563592
     78 H34        -6.0230   -0.4540    1.2600 hn        1 MOL      0.270794
     79 H35        -7.5060   -3.0290    1.5490 h1        1 MOL      0.144638
     80 H36        -6.9270   -1.8850    2.7440 h1        1 MOL      0.144638
     81 N9         -4.4170   -3.1890    1.4000 n         1 MOL     -0.332553
     82 C25        -3.1780   -3.8590    1.8370 c3        1 MOL      0.150330
     83 C26        -1.9350   -3.0450    1.5350 c         1 MOL      0.455927
     84 O13        -2.0530   -2.1380    0.7430 o         1 MOL     -0.504741
     85 C27        -3.0520   -5.2790    1.2320 c3        1 MOL     -0.091144
     86 C28        -2.7050   -5.4680   -0.2300 ca        1 MOL     -0.019547
     87 C29        -1.4010   -5.5840   -0.6320 ca        1 MOL     -0.043479
     88 C30        -3.6730   -5.5340   -1.2370 ca        1 MOL     -0.043479
     89 C31        -1.0580   -5.7910   -1.9230 ca        1 MOL     -0.320872
     90 C32        -3.3780   -5.7290   -2.5990 ca        1 MOL     -0.320872
     91 C33        -2.0170   -5.9340   -2.9520 ca        1 MOL      0.401034
     92 O14        -1.6790   -5.9510   -4.2510 oh        1 MOL     -0.545187
     93 H37        -4.3310   -2.4830    0.6790 hn        1 MOL      0.239195
     94 H38        -3.2450   -3.9620    2.9200 h1        1 MOL      0.036022
     95 H39        -3.9870   -5.7520    1.5240 hc        1 MOL      0.054271
     96 H40        -2.3630   -5.8490    1.8630 hc        1 MOL      0.054271
     97 H41        -0.6360   -5.3380    0.0890 ha        1 MOL      0.109810
     98 H42        -4.7140   -5.4390   -0.9920 ha        1 MOL      0.109810
     99 H43        -0.0190   -5.5840   -2.1650 ha        1 MOL      0.143532
    100 H44        -4.2130   -5.9200   -3.2540 ha        1 MOL      0.143532
    101 H45        -2.3540   -5.6950   -4.8790 ho        1 MOL      0.407332
    102 N10        -0.7910   -3.4080    2.1410 n         1 MOL     -0.447138
    103 C34         0.5630   -2.8000    2.1470 c3        1 MOL      0.021576
    104 C35         1.5990   -3.7430    1.6670 c         1 MOL      0.571110
    105 O15         1.5780   -4.9140    1.9750 o         1 MOL     -0.562378
    106 C36         0.8480   -2.1860    3.5370 c3        1 MOL      0.014180
    107 C37        -0.2660   -1.2240    3.9160 c3        1 MOL      0.124602
    108 C38         2.1770   -1.3770    3.4960 c3        1 MOL     -0.301501
    109 C39        -0.1350   -0.7440    5.3480 c3        1 MOL     -0.582748
    110 H46        -0.8980   -4.2000    2.7640 hn        1 MOL      0.265767
    111 H47         0.6520   -1.9270    1.4940 h1        1 MOL      0.045248
    112 H48         0.9390   -2.9680    4.2920 hc        1 MOL      0.045227
    113 H49        -1.2950   -1.5930    3.8920 hc        1 MOL      0.053000
    114 H50        -0.4370   -0.3360    3.3040 hc        1 MOL      0.053000
    115 H51         2.4210   -1.0470    4.5010 hc        1 MOL      0.084944
    116 H52         3.0080   -1.9930    3.1580 hc        1 MOL      0.084944
    117 H53         2.0360   -0.4940    2.8620 hc        1 MOL      0.084944
    118 H54         0.0460   -1.5920    6.0020 hc        1 MOL      0.144282
    119 H55         0.7300   -0.0920    5.3040 hc        1 MOL      0.144282
    120 H56        -1.0380   -0.2100    5.6490 hc        1 MOL      0.144282
    121 N11         2.4540   -3.2270    0.7620 n         1 MOL     -0.221736
    122 C40         3.6030   -3.7460    0.0320 c3        1 MOL      0.056118
    123 C41         5.0590   -3.2390    0.4170 c         1 MOL      0.376650
    124 O16         5.1950   -2.1720    1.0390 o         1 MOL     -0.335889
    125 C42         3.3740   -3.7120   -1.4410 c3        1 MOL     -0.075672
    126 O17         3.3330   -2.2990   -1.8990 oh        1 MOL     -0.476326
    127 H57         2.5070   -2.2160    0.7520 hn        1 MOL      0.158002
    128 H58         3.5950   -4.8040    0.3100 h1        1 MOL      0.052420
    129 H59         2.4060   -4.1600   -1.6320 h1        1 MOL      0.074365
    130 H60         4.1370   -4.3260   -1.9250 h1        1 MOL      0.074365
    131 H61         3.5130   -2.4390   -2.8300 ho        1 MOL      0.377491
    132 N12         6.0560   -3.8200   -0.2300 n         1 MOL     -0.436587
    133 C43         7.5200   -3.4450    0.1060 c3        1 MOL      0.113929
    134 C44         7.8490   -2.0150   -0.3600 c         1 MOL      0.435592
    135 O18         8.3360   -1.2270    0.4500 o         1 MOL     -0.494071
    136 C45         8.4540   -4.4750   -0.3900 c3        1 MOL     -0.212737
    137 H62         5.8500   -4.7420   -0.5930 hn        1 MOL      0.303479
    138 H63         7.6240   -3.4570    1.1870 h1        1 MOL      0.089182
    139 H64         8.0800   -5.4950   -0.3270 hc        1 MOL      0.071583
    140 H65         8.7110   -4.3620   -1.4450 hc        1 MOL      0.071583
    141 H66         9.4370   -4.4850    0.0860 hc        1 MOL      0.071583
    142 N13         7.4240   -1.6630   -1.5890 n         1 MOL     -0.363823
    143 C46         7.6230   -0.3240   -2.1670 c3        1 MOL      0.171295
    144 C47         6.8180    0.8000   -1.4640 c         1 MOL      0.313795
    145 O19         7.1980    1.9680   -1.6400 o         1 MOL     -0.530823
    146 C48         7.4110   -0.4550   -3.6460 c3        1 MOL     -0.283546
    147 H67         7.1790   -2.3410   -2.2890 hn        1 MOL      0.249827
    148 H68         8.6780   -0.0760   -2.0840 h1        1 MOL      0.084528
    149 H69         6.3800   -0.6770   -3.9290 hc        1 MOL      0.076628
    150 H70         7.7880    0.4260   -4.1650 hc        1 MOL      0.076628
    151 H71         8.0150   -1.3310   -3.8960 hc        1 MOL      0.076628
    152 N14         5.7690    0.4620   -0.6570 n         1 MOL      0.048643
    153 C49         4.9200    1.4080    0.0870 c3        1 MOL     -0.099178
    154 C50         5.3330    1.5710    1.5170 c         1 MOL      0.485767
    155 O20         5.5010    2.6810    2.0590 o         1 MOL     -0.514116
    156 C51         3.4280    0.8450   -0.0640 c3        1 MOL     -0.124572
    157 C52         2.9260    0.7320   -1.4810 c3        1 MOL     -0.003766
    158 C53         1.5120    0.2070   -1.4120 c         1 MOL      0.716984
    159 O21         0.7620    0.4540   -2.3970 o         1 MOL     -0.752328
    160 O22         0.9760   -0.3450   -0.4370 o         1 MOL     -0.752328
    161 H72         5.5150   -0.5120   -0.5480 hn        1 MOL     -0.000727
    162 H73         4.9990    2.3800   -0.4010 h1        1 MOL      0.054893
    163 H74         2.7500    1.3470    0.6180 hc        1 MOL      0.078140
    164 H75         3.3790   -0.0940    0.4860 hc        1 MOL      0.078140
    165 H76         3.5090    0.0500   -2.1130 hc        1 MOL     -0.017410
    166 H77         2.9550    1.6640   -2.0450 hc        1 MOL     -0.017410
    167 N15         5.7080    0.3830    2.1090 n         1 MOL     -0.171724
    168 C54         6.3000    0.4230    3.4850 c3        1 MOL     -0.317528
    169 H78         5.8260    1.2180    4.0620 h1        1 MOL      0.123967
    170 H79         6.1330   -0.5330    3.9810 h1        1 MOL      0.123967
    171 H80         7.3700    0.6140    3.4160 h1        1 MOL      0.123967
    172 H81         5.4840   -0.5020    1.6930 hn        1 MOL      0.151260
    173 Ca1        -1.4730   -0.2020   -1.0610 Ca        1 MOL      1.756902
    174 O23        -1.0420   -2.7870   -1.7650 oh        1 MOL     -0.825222
    175 H82        -0.2930   -2.7840   -2.3630 ho        1 MOL      0.382481
    176 H83        -1.2940   -3.7150   -1.7050 ho        1 MOL      0.382481
    177 O24        -1.8350   -0.7110   -3.8590 oh        1 MOL     -0.825222
    178 H84        -2.1980   -1.2680   -4.5370 ho        1 MOL      0.382481
    179 H85        -2.1320    0.1730   -4.0890 ho        1 MOL      0.382481
@<TRIPOS>BOND
     1    1    2 1   
     2    1    4 1   
     3    1    5 1   
     4    1    6 1   
     5    2    3 2   
     6    2    7 1   
     7    7    8 1   
     8    7   15 1   
     9    8    9 1   
    10    8   11 1   
    11    8   16 1   
    12    9   10 2   
    13    9   19 1   
    14   11   12 1   
    15   11   17 1   
    16   11   18 1   
    17   12   13 1   
    18   12   14 1   
    19   19   20 1   
    20   19   28 1   
    21   20   21 1   
    22   20   23 1   
    23   20   29 1   
    24   21   22 2   
    25   21   41 1   
    26   23   24 1   
    27   23   30 1   
    28   23   31 1   
    29   24   25 1   
    30   24   32 1   
    31   24   33 1   
    32   25   26 1   
    33   25   34 1   
    34   25   35 1   
    35   26   27 1   
    36   26   36 1   
    37   26   37 1   
    38   27   38 1   
    39   27   39 1   
    40   27   40 1   
    41   41   42 1   
    42   41   49 1   
    43   42   43 1   
    44   42   45 1   
    45   42   50 1   
    46   43   44 2   
    47   43   53 1   
    48   45   46 1   
    49   45   51 1   
    50   45   52 1   
    51   46   47 1   
    52   46   48 1   
    53   53   54 1   
    54   53   57 1   
    55   54   55 1   
    56   54   58 1   
    57   54   59 1   
    58   55   56 2   
    59   55   60 1   
    60   60   61 1   
    61   60   68 1   
    62   61   62 1   
    63   61   64 1   
    64   61   69 1   
    65   62   63 2   
    66   62   74 1   
    67   64   65 1   
    68   64   70 1   
    69   64   71 1   
    70   65   66 1   
    71   65   67 2   
    72   66   72 1   
    73   66   73 1   
    74   74   75 1   
    75   74   78 1   
    76   75   76 1   
    77   75   79 1   
    78   75   80 1   
    79   76   77 2   
    80   76   81 1   
    81   81   82 1   
    82   81   93 1   
    83   82   83 1   
    84   82   85 1   
    85   82   94 1   
    86   83   84 2   
    87   83  102 1   
    88   85   86 1   
    89   85   95 1   
    90   85   96 1   
    91   86   87 ar  
    92   86   88 ar  
    93   87   89 ar  
    94   87   97 1   
    95   88   90 ar  
    96   88   98 1   
    97   89   91 ar  
    98   89   99 1   
    99   90   91 ar  
   100   90  100 1   
   101   91   92 1   
   102   92  101 1   
   103  102  103 1   
   104  102  110 1   
   105  103  104 1   
   106  103  106 1   
   107  103  111 1   
   108  104  105 2   
   109  104  121 1   
   110  106  107 1   
   111  106  108 1   
   112  106  112 1   
   113  107  109 1   
   114  107  113 1   
   115  107  114 1   
   116  108  115 1   
   117  108  116 1   
   118  108  117 1   
   119  109  118 1   
   120  109  119 1   
   121  109  120 1   
   122  121  122 1   
   123  121  127 1   
   124  122  123 1   
   125  122  125 1   
   126  122  128 1   
   127  123  124 2   
   128  123  132 1   
   129  125  126 1   
   130  125  129 1   
   131  125  130 1   
   132  126  131 1   
   133  132  133 1   
   134  132  137 1   
   135  133  134 1   
   136  133  136 1   
   137  133  138 1   
   138  134  135 2   
   139  134  142 1   
   140  136  139 1   
   141  136  140 1   
   142  136  141 1   
   143  142  143 1   
   144  142  147 1   
   145  143  144 1   
   146  143  146 1   
   147  143  148 1   
   148  144  145 2   
   149  144  152 1   
   150  146  149 1   
   151  146  150 1   
   152  146  151 1   
   153  152  153 1   
   154  152  161 1   
   155  153  154 1   
   156  153  156 1   
   157  153  162 1   
   158  154  155 2   
   159  154  167 1   
   160  156  157 1   
   161  156  163 1   
   162  156  164 1   
   163  157  158 1   
   164  157  165 1   
   165  157  166 1   
   166  158  159 1   
   167  158  160 1   
   168  167  168 1   
   169  167  172 1   
   170  168  169 1   
   171  168  170 1   
   172  168  171 1   
   173  174  175 1   
   174  174  176 1   
   175  177  178 1   
   176  177  179 1   
@<TRIPOS>SUBSTRUCTURE
     1 MOL         1 TEMP              0 ****  ****    0 ROOT
