@<TRIPOS>MOLECULE
MOL
  172   171     1     0     0
SMALL
resp


@<TRIPOS>ATOM
      1 C1          0.6060   -3.3080    5.8480 c3        1 MOL     -0.391154
      2 C2          1.0430   -3.1500    4.3610 c         1 MOL      0.674500
      3 O1          0.4030   -3.6490    3.3840 o         1 MOL     -0.602332
      4 H1          1.4850   -3.2700    6.4910 hc        1 MOL      0.104681
      5 H2         -0.0750   -2.5000    6.1160 hc        1 MOL      0.104681
      6 H3          0.1020   -4.2670    5.9790 hc        1 MOL      0.104681
      7 N1          2.1140   -2.4040    4.0100 n         1 MOL     -0.593274
      8 C3          2.6250   -2.2060    2.6990 c3        1 MOL      0.337665
      9 C4          3.3210   -3.4780    2.2600 c         1 MOL      0.467442
     10 O2          4.4120   -3.7640    2.7770 o         1 MOL     -0.578999
     11 C5          3.5450   -0.9790    2.7070 c3        1 MOL     -0.440199
     12 C6          4.1510   -0.6820    1.3580 c         1 MOL      0.657480
     13 O3          5.1140    0.0840    1.3830 o         1 MOL     -0.636508
     14 O4          3.6570   -1.1220    0.2850 o         1 MOL     -0.636508
     15 H4          2.5510   -1.9070    4.7820 hn        1 MOL      0.287282
     16 H5          1.8000   -1.9560    2.0360 h1        1 MOL      0.035176
     17 H6          4.3620   -1.1130    3.4170 hc        1 MOL      0.109058
     18 H7          2.8240   -0.2210    3.0170 hc        1 MOL      0.109058
     19 N2          2.7420   -4.2160    1.3140 n         1 MOL     -0.459399
     20 C7          3.3190   -5.4190    0.6510 c3        1 MOL      0.336770
     21 C8          4.2060   -4.9230   -0.4610 c         1 MOL      0.314181
     22 O5          5.1260   -5.6880   -0.6440 o         1 MOL     -0.566625
     23 C9          2.2680   -6.4090    0.1620 c3        1 MOL     -0.349905
     24 H8          1.7620   -4.0810    1.1330 hn        1 MOL      0.316420
     25 H9          3.9120   -5.9410    1.4030 h1        1 MOL      0.014400
     26 H10         1.5590   -5.9750   -0.5550 hc        1 MOL      0.089483
     27 H11         2.8020   -7.2470   -0.2870 hc        1 MOL      0.089483
     28 H12         1.7570   -6.7770    1.0490 hc        1 MOL      0.089483
     29 N3          3.9820   -3.7890   -1.1100 n         1 MOL      0.022720
     30 C10         4.7980   -3.4140   -2.2510 c3        1 MOL     -0.337846
     31 C11         6.2290   -2.9580   -1.8730 c         1 MOL      0.545990
     32 O6          7.1120   -2.8460   -2.6770 o         1 MOL     -0.550451
     33 C12         4.1350   -2.2880   -3.1330 c3        1 MOL     -0.052400
     34 C13         2.5970   -2.4160   -3.3460 c         1 MOL      0.622157
     35 O7          2.0210   -1.3870   -2.9470 o         1 MOL     -0.666543
     36 O8          2.1100   -3.3870   -3.9710 o         1 MOL     -0.666543
     37 H13         3.2500   -3.1810   -0.7800 hn        1 MOL      0.123242
     38 H14         4.9120   -4.2550   -2.9460 h1        1 MOL      0.148455
     39 H15         4.6510   -2.2480   -4.0980 hc        1 MOL      0.031853
     40 H16         4.3770   -1.3520   -2.6410 hc        1 MOL      0.031853
     41 N4          6.4090   -2.4750   -0.6220 n         1 MOL     -0.294162
     42 C14         7.5350   -1.7910   -0.1340 c3        1 MOL     -0.105669
     43 C15         7.7760   -0.3770   -0.6740 c         1 MOL      0.528250
     44 O9          8.9300    0.0550   -0.6350 o         1 MOL     -0.619735
     45 H17         5.5590   -2.5520   -0.0910 hn        1 MOL      0.252277
     46 H18         8.4660   -2.3580   -0.1690 h1        1 MOL      0.080623
     47 H19         7.3440   -1.5930    0.9230 h1        1 MOL      0.080623
     48 N5          6.7620    0.2750   -1.2150 n         1 MOL     -0.073907
     49 C16         6.8340    1.6000   -1.8100 c3        1 MOL     -0.112646
     50 C17         6.5160    2.7980   -0.8160 c         1 MOL      0.481882
     51 O10         6.4090    3.9390   -1.1850 o         1 MOL     -0.540175
     52 C18         6.0450    1.7590   -3.0960 c3        1 MOL     -0.125674
     53 C19         4.5470    1.7240   -2.8990 c         1 MOL      0.589848
     54 N6          3.7510    2.4740   -3.6280 n         1 MOL     -0.726890
     55 O11         3.9850    1.0300   -2.0570 o         1 MOL     -0.548856
     56 H20         5.8370   -0.0490   -0.9950 hn        1 MOL      0.057350
     57 H21         7.8660    1.7430   -2.1320 h1        1 MOL      0.106666
     58 H22         6.3580    0.9770   -3.7960 hc        1 MOL      0.058669
     59 H23         6.2180    2.7320   -3.5540 hc        1 MOL      0.058669
     60 H24         4.0610    3.0060   -4.4330 hn        1 MOL      0.331505
     61 H25         2.7480    2.4900   -3.4540 hn        1 MOL      0.331505
     62 N7          6.4410    2.5010    0.4580 n         1 MOL     -0.276061
     63 C20         6.4210    3.5180    1.6060 c3        1 MOL     -0.214650
     64 C21         5.0370    4.0470    1.9670 c         1 MOL      0.611477
     65 O12         4.8660    4.9110    2.7870 o         1 MOL     -0.612299
     66 H26         6.5770    1.5440    0.7400 hn        1 MOL      0.262781
     67 H27         7.0960    4.3350    1.3590 h1        1 MOL      0.124614
     68 H28         6.7750    3.0590    2.5320 h1        1 MOL      0.124614
     69 N8          4.0100    3.7080    1.2560 n         1 MOL     -0.367877
     70 C22         2.6290    4.3480    1.2610 c3        1 MOL      0.082146
     71 C23         1.4500    3.3470    1.1270 c         1 MOL      0.614671
     72 O13         1.6970    2.1550    0.7230 o         1 MOL     -0.606916
     73 C24         2.5330    5.4450    0.1750 c3        1 MOL      0.250250
     74 C25         3.6500    6.5030    0.3730 c3        1 MOL     -0.368962
     75 O14         2.6150    4.9200   -1.1190 oh        1 MOL     -0.523899
     76 H29         4.2460    2.9550    0.6270 hn        1 MOL      0.256791
     77 H30         2.3650    4.7500    2.2430 h1        1 MOL      0.044414
     78 H31         1.5400    5.8860    0.2450 h1        1 MOL      0.002884
     79 H32         2.9780    5.6220   -1.6650 ho        1 MOL      0.367496
     80 H33         4.6500    6.0760    0.2780 hc        1 MOL      0.100896
     81 H34         3.4030    7.3390   -0.2790 hc        1 MOL      0.100896
     82 H35         3.4880    6.9710    1.3480 hc        1 MOL      0.100896
     83 N9          0.2100    3.7910    1.4530 n         1 MOL     -0.486970
     84 C26        -1.0460    2.9880    1.5590 c3        1 MOL      0.042133
     85 C27        -1.7560    3.1370    0.2140 c         1 MOL      0.617941
     86 O15        -1.9550    4.2910   -0.2160 o         1 MOL     -0.574896
     87 C28        -1.8230    3.2250    2.9030 c3        1 MOL      0.072427
     88 C29        -0.9580    2.5570    4.0220 c3        1 MOL      0.057040
     89 C30        -3.3110    2.7200    2.6880 c3        1 MOL     -0.318234
     90 C31        -1.4850    2.8540    5.4080 c3        1 MOL     -0.089926
     91 H36         0.1130    4.7550    1.7440 hn        1 MOL      0.252931
     92 H37        -0.7620    1.9300    1.5670 h1        1 MOL      0.023106
     93 H38        -1.8390    4.2860    3.1510 hc        1 MOL      0.011896
     94 H39         0.0930    2.8110    3.9160 hc        1 MOL      0.012365
     95 H40        -1.0050    1.4700    3.8860 hc        1 MOL      0.012365
     96 H41        -3.2110    1.7090    2.2860 hc        1 MOL      0.074496
     97 H42        -3.8430    2.5910    3.6310 hc        1 MOL      0.074496
     98 H43        -3.7670    3.3960    1.9620 hc        1 MOL      0.074496
     99 H44        -1.5760    3.9380    5.4650 hc        1 MOL      0.013193
    100 H45        -2.4950    2.4610    5.5590 hc        1 MOL      0.013193
    101 H46        -0.8140    2.4950    6.1820 hc        1 MOL      0.013193
    102 N10        -2.0650    1.9800   -0.4120 n         1 MOL     -0.507121
    103 C32        -3.0740    1.8430   -1.4560 c3        1 MOL      0.140229
    104 C33        -4.4950    1.5300   -0.9720 c         1 MOL      0.551319
    105 O16        -4.5600    0.8800    0.0500 o         1 MOL     -0.329686
    106 C34        -2.5640    0.8890   -2.5700 c3        1 MOL     -0.365081
    107 C35        -1.1430    1.1490   -3.0180 c         1 MOL      0.882737
    108 O17        -0.9120    1.9190   -3.9590 o         1 MOL     -0.744884
    109 O18        -0.2800    0.4750   -2.5160 o         1 MOL     -0.744884
    110 H47        -1.7320    1.1120   -0.0220 hn        1 MOL      0.269306
    111 H48        -3.2200    2.8430   -1.8790 h1        1 MOL      0.021586
    112 H49        -3.1900    1.0650   -3.4410 hc        1 MOL      0.092172
    113 H50        -2.6910   -0.1180   -2.1750 hc        1 MOL      0.092172
    114 N11        -5.5750    1.7270   -1.7570 n         1 MOL     -0.716981
    115 C36        -6.9400    1.2700   -1.2760 c3        1 MOL      0.270718
    116 C37        -7.0320   -0.1510   -0.6430 c         1 MOL      0.355673
    117 O19        -7.4050   -0.3380    0.5130 o         1 MOL     -0.457643
    118 C38        -8.0840    1.6190   -2.1970 c3        1 MOL     -0.148497
    119 C39        -9.4220    1.1470   -1.7490 ca        1 MOL      0.012598
    120 C40        -9.9730    1.7070   -0.5570 ca        1 MOL     -0.143398
    121 C41        -9.9730    0.0690   -2.4270 ca        1 MOL     -0.143398
    122 C42       -11.2760    1.3100   -0.1900 ca        1 MOL     -0.111520
    123 C43       -11.2840   -0.2890   -2.1150 ca        1 MOL     -0.111520
    124 C44       -11.9280    0.4260   -1.0170 ca        1 MOL     -0.094319
    125 H51        -5.5590    2.2980   -2.5860 hn        1 MOL      0.367656
    126 H52        -7.2350    1.9370   -0.4640 h1        1 MOL      0.047922
    127 H53        -7.8560    1.3770   -3.2420 hc        1 MOL      0.056057
    128 H54        -8.1530    2.7060   -2.2760 hc        1 MOL      0.056057
    129 H55        -9.4580    2.4550    0.0310 ha        1 MOL      0.133203
    130 H56        -9.5070   -0.4360   -3.2510 ha        1 MOL      0.133203
    131 H57       -11.8130    1.7710    0.6320 ha        1 MOL      0.113711
    132 H58       -11.8080   -1.0250   -2.7020 ha        1 MOL      0.113711
    133 H59       -12.9950    0.2930   -0.9570 ha        1 MOL      0.080677
    134 N12        -6.7050   -1.2110   -1.3930 n         1 MOL     -0.081701
    135 C45        -6.7530   -2.5360   -0.8030 c3        1 MOL      0.030168
    136 C46        -5.8130   -2.7480    0.4210 c         1 MOL      0.323643
    137 O20        -6.0480   -3.6640    1.1980 o         1 MOL     -0.527352
    138 C47        -6.4150   -3.5290   -1.9490 c3        1 MOL     -0.070027
    139 C48        -6.5150   -2.7790   -3.2690 c3        1 MOL      0.106116
    140 C49        -6.4030   -1.3030   -2.8430 c3        1 MOL      0.004542
    141 H60        -7.7120   -2.8570   -0.3870 h1        1 MOL      0.053612
    142 H61        -5.4070   -3.8880   -1.8060 hc        1 MOL      0.038526
    143 H62        -7.0440   -4.4190   -1.8990 hc        1 MOL      0.038526
    144 H63        -5.7720   -3.0990   -3.9990 hc        1 MOL     -0.010841
    145 H64        -7.4950   -2.9960   -3.6910 hc        1 MOL     -0.010841
    146 H65        -5.3860   -0.9570   -3.0050 h1        1 MOL      0.006298
    147 H66        -7.1490   -0.7430   -3.4080 h1        1 MOL      0.006298
    148 N13        -4.8310   -1.9240    0.6970 n         1 MOL     -0.110624
    149 C50        -3.9980   -1.9620    1.9590 c3        1 MOL     -0.067408
    150 C51        -4.6890   -1.0530    3.0440 c         1 MOL      0.417426
    151 O21        -4.7160   -1.4000    4.2700 o         1 MOL     -0.581355
    152 C52        -2.5150   -1.5610    1.7720 c3        1 MOL     -0.039504
    153 C53        -1.8380   -2.4530    0.6810 c3        1 MOL     -0.065076
    154 C54        -0.4230   -1.8570    0.2890 c         1 MOL      0.683509
    155 O22        -0.0380   -0.6840    0.5620 o         1 MOL     -0.740964
    156 O23         0.3770   -2.6050   -0.3360 o         1 MOL     -0.740964
    157 H67        -4.7130   -1.1620    0.0430 hn        1 MOL      0.148982
    158 H68        -3.9950   -3.0100    2.2580 h1        1 MOL      0.114215
    159 H69        -1.9640   -1.6270    2.7120 hc        1 MOL      0.054474
    160 H70        -2.4380   -0.5310    1.4370 hc        1 MOL      0.054474
    161 H71        -2.4490   -2.4320   -0.2260 hc        1 MOL      0.031548
    162 H72        -1.6980   -3.4640    1.0560 hc        1 MOL      0.031548
    163 N14        -5.4020   -0.0140    2.5900 n         1 MOL      0.054135
    164 C55        -6.2830    0.8500    3.4450 c3        1 MOL     -0.140671
    165 H73        -7.1450    1.1790    2.8620 h1        1 MOL      0.061400
    166 H74        -6.6270    0.2800    4.3080 h1        1 MOL      0.061400
    167 H75        -5.7220    1.7210    3.7840 h1        1 MOL      0.061400
    168 H76        -5.4370    0.0230    1.5820 hn        1 MOL     -0.063477
    169 Ca1         1.7780   -0.0550   -0.9880 Ca        1 MOL      1.680867
    170 O24         1.3900    2.5190   -2.1740 oh        1 MOL     -0.680633
    171 H77         0.7190    2.6450   -2.8480 ho        1 MOL      0.338744
    172 H78         1.5720    3.3990   -1.8520 ho        1 MOL      0.338744
@<TRIPOS>BOND
     1    1    2 1   
     2    1    4 1   
     3    1    5 1   
     4    1    6 1   
     5    2    3 2   
     6    2    7 1   
     7    7    8 1   
     8    7   15 1   
     9    8    9 1   
    10    8   11 1   
    11    8   16 1   
    12    9   10 2   
    13    9   19 1   
    14   11   12 1   
    15   11   17 1   
    16   11   18 1   
    17   12   13 1   
    18   12   14 1   
    19   19   20 1   
    20   19   24 1   
    21   20   21 1   
    22   20   23 1   
    23   20   25 1   
    24   21   22 2   
    25   21   29 1   
    26   23   26 1   
    27   23   27 1   
    28   23   28 1   
    29   29   30 1   
    30   29   37 1   
    31   30   31 1   
    32   30   33 1   
    33   30   38 1   
    34   31   32 2   
    35   31   41 1   
    36   33   34 1   
    37   33   39 1   
    38   33   40 1   
    39   34   35 1   
    40   34   36 1   
    41   41   42 1   
    42   41   45 1   
    43   42   43 1   
    44   42   46 1   
    45   42   47 1   
    46   43   44 2   
    47   43   48 1   
    48   48   49 1   
    49   48   56 1   
    50   49   50 1   
    51   49   52 1   
    52   49   57 1   
    53   50   51 2   
    54   50   62 1   
    55   52   53 1   
    56   52   58 1   
    57   52   59 1   
    58   53   54 1   
    59   53   55 2   
    60   54   60 1   
    61   54   61 1   
    62   62   63 1   
    63   62   66 1   
    64   63   64 1   
    65   63   67 1   
    66   63   68 1   
    67   64   65 2   
    68   64   69 1   
    69   69   70 1   
    70   69   76 1   
    71   70   71 1   
    72   70   73 1   
    73   70   77 1   
    74   71   72 2   
    75   71   83 1   
    76   73   74 1   
    77   73   75 1   
    78   73   78 1   
    79   74   80 1   
    80   74   81 1   
    81   74   82 1   
    82   75   79 1   
    83   83   84 1   
    84   83   91 1   
    85   84   85 1   
    86   84   87 1   
    87   84   92 1   
    88   85   86 2   
    89   85  102 1   
    90   87   88 1   
    91   87   89 1   
    92   87   93 1   
    93   88   90 1   
    94   88   94 1   
    95   88   95 1   
    96   89   96 1   
    97   89   97 1   
    98   89   98 1   
    99   90   99 1   
   100   90  100 1   
   101   90  101 1   
   102  102  103 1   
   103  102  110 1   
   104  103  104 1   
   105  103  106 1   
   106  103  111 1   
   107  104  105 2   
   108  104  114 1   
   109  106  107 1   
   110  106  112 1   
   111  106  113 1   
   112  107  108 1   
   113  107  109 1   
   114  114  115 1   
   115  114  125 1   
   116  115  116 1   
   117  115  118 1   
   118  115  126 1   
   119  116  117 2   
   120  116  134 1   
   121  118  119 1   
   122  118  127 1   
   123  118  128 1   
   124  119  120 ar  
   125  119  121 ar  
   126  120  122 ar  
   127  120  129 1   
   128  121  123 ar  
   129  121  130 1   
   130  122  124 ar  
   131  122  131 1   
   132  123  124 ar  
   133  123  132 1   
   134  124  133 1   
   135  134  135 1   
   136  134  140 1   
   137  135  136 1   
   138  135  138 1   
   139  135  141 1   
   140  136  137 2   
   141  136  148 1   
   142  138  139 1   
   143  138  142 1   
   144  138  143 1   
   145  139  140 1   
   146  139  144 1   
   147  139  145 1   
   148  140  146 1   
   149  140  147 1   
   150  148  149 1   
   151  148  157 1   
   152  149  150 1   
   153  149  152 1   
   154  149  158 1   
   155  150  151 2   
   156  150  163 1   
   157  152  153 1   
   158  152  159 1   
   159  152  160 1   
   160  153  154 1   
   161  153  161 1   
   162  153  162 1   
   163  154  155 1   
   164  154  156 1   
   165  163  164 1   
   166  163  168 1   
   167  164  165 1   
   168  164  166 1   
   169  164  167 1   
   170  170  171 1   
   171  170  172 1   
@<TRIPOS>SUBSTRUCTURE
     1 MOL         1 TEMP              0 ****  ****    0 ROOT
