@<TRIPOS>MOLECULE
MOL
  189   185     1     0     0
SMALL
resp


@<TRIPOS>ATOM
      1 C1          0.0620    2.4040    5.6030 c3        1 MOL     -0.323744
      2 C2         -0.4080    2.0670    4.1620 c         1 MOL      0.701440
      3 O1          0.4550    2.3420    3.3190 o         1 MOL     -0.607317
      4 H1          0.6220    1.5610    6.0080 hc        1 MOL      0.076152
      5 H2          0.7020    3.2860    5.5800 hc        1 MOL      0.076152
      6 H3         -0.8060    2.5990    6.2320 hc        1 MOL      0.076152
      7 N1         -1.5900    1.4660    3.9810 n         1 MOL     -0.596626
      8 C3         -2.3100    1.2810    2.7040 c3        1 MOL      0.068704
      9 C4         -2.7000    2.6190    2.0360 c         1 MOL      0.557493
     10 O2         -3.6950    3.2940    2.3670 o         1 MOL     -0.549789
     11 C5         -3.5990    0.5000    2.8280 c3        1 MOL     -0.052189
     12 C6         -4.1610   -0.1190    1.5230 c         1 MOL      0.707656
     13 O3         -3.4930    0.0180    0.4690 o         1 MOL     -0.715498
     14 O4         -5.3970   -0.4630    1.4820 o         1 MOL     -0.715498
     15 H4         -2.0970    1.1010    4.7690 hn        1 MOL      0.327152
     16 H5         -1.5910    0.6650    2.1600 h1        1 MOL      0.052937
     17 H6         -4.3360    1.1140    3.3460 hc        1 MOL      0.012334
     18 H7         -3.4120   -0.3740    3.4450 hc        1 MOL      0.012334
     19 N2         -1.9050    3.1220    1.0510 n         1 MOL     -0.344891
     20 C7         -1.9740    4.5020    0.5470 c3        1 MOL     -0.136451
     21 C8         -3.0910    4.9890   -0.4640 c         1 MOL      0.621233
     22 O5         -3.5070    6.1100   -0.5180 o         1 MOL     -0.563506
     23 C9         -0.6430    4.8070   -0.0230 c3        1 MOL     -0.020104
     24 C10        -0.3110    6.3340    0.1030 c3        1 MOL     -0.045857
     25 C11         0.1130    6.8280    1.5270 c3        1 MOL      0.085520
     26 C12         0.2040    8.3490    1.5070 c3        1 MOL     -0.000326
     27 N3          0.5710    8.9280    2.7760 n4        1 MOL     -0.257296
     28 H8         -1.1190    2.5780    0.7220 hn        1 MOL      0.308096
     29 H9         -2.1570    5.1300    1.4160 h1        1 MOL      0.067751
     30 H10        -0.6140    4.4070   -1.0260 hc        1 MOL      0.045563
     31 H11         0.1750    4.3410    0.5270 hc        1 MOL      0.045563
     32 H12        -1.1450    6.9380   -0.2320 hc        1 MOL      0.008621
     33 H13         0.5300    6.6090   -0.5450 hc        1 MOL      0.008621
     34 H14         1.0970    6.4570    1.8200 hc        1 MOL      0.018210
     35 H15        -0.5360    6.5670    2.3560 hc        1 MOL      0.018210
     36 H16        -0.7610    8.7590    1.2210 hx        1 MOL      0.077332
     37 H17         0.9440    8.5590    0.7300 hx        1 MOL      0.077332
     38 H18         1.1570    8.3410    3.3600 hn        1 MOL      0.301128
     39 H19         0.8440    9.8950    2.7240 hn        1 MOL      0.301128
     40 H20        -0.2240    8.8470    3.3910 hn        1 MOL      0.301128
     41 N4         -3.7080    3.9660   -1.1370 n         1 MOL     -0.354229
     42 C13        -4.7290    4.0650   -2.1310 c3        1 MOL      0.071970
     43 C14        -6.0260    3.2240   -1.8080 c         1 MOL      0.366665
     44 O6         -7.0730    3.3810   -2.4640 o         1 MOL     -0.510013
     45 C15        -4.1290    3.6290   -3.4870 c3        1 MOL     -0.280067
     46 C16        -3.2020    2.3770   -3.4360 c         1 MOL      0.826379
     47 O7         -3.2350    1.5690   -2.4820 o         1 MOL     -0.736570
     48 O8         -2.4610    2.1580   -4.4640 o         1 MOL     -0.736570
     49 H21        -3.2390    3.0830   -0.9890 hn        1 MOL      0.190012
     50 H22        -5.0940    5.0980   -2.1340 h1        1 MOL      0.088604
     51 H23        -3.5190    4.4590   -3.8440 hc        1 MOL      0.072304
     52 H24        -4.9410    3.4020   -4.1800 hc        1 MOL      0.072304
     53 N5         -5.9750    2.3290   -0.8030 n         1 MOL     -0.165252
     54 C17        -7.1090    1.5940   -0.2730 c3        1 MOL     -0.107243
     55 C18        -7.5060    0.3620   -1.0200 c         1 MOL      0.539948
     56 O9         -8.6870    0.1950   -1.2770 o         1 MOL     -0.576976
     57 H25        -5.1110    2.2730   -0.2930 hn        1 MOL      0.165935
     58 H26        -7.9710    2.2570   -0.1540 h1        1 MOL      0.081449
     59 H27        -6.8350    1.3130    0.7460 h1        1 MOL      0.081449
     60 N6         -6.5430   -0.4630   -1.4760 n         1 MOL     -0.133441
     61 C19        -6.8830   -1.7020   -2.0740 c3        1 MOL     -0.089492
     62 C20        -7.0080   -2.8670   -1.0520 c         1 MOL      0.335239
     63 O10        -7.2350   -4.0400   -1.4390 o         1 MOL     -0.542362
     64 C21        -5.8530   -2.0130   -3.1580 c3        1 MOL     -0.172729
     65 C22        -4.3980   -1.8680   -2.7160 c         1 MOL      0.660603
     66 O11        -3.7240   -1.1460   -3.4270 o         1 MOL     -0.669976
     67 O12        -3.9220   -2.3250   -1.6370 o         1 MOL     -0.669976
     68 H28        -5.5890   -0.2160   -1.2680 hn        1 MOL      0.141456
     69 H29        -7.7890   -1.6430   -2.6870 h1        1 MOL      0.140444
     70 H30        -6.1130   -1.4100   -4.0230 hc        1 MOL      0.066492
     71 H31        -5.8850   -3.0560   -3.4610 hc        1 MOL      0.066492
     72 N7         -6.7800   -2.6870    0.1810 n         1 MOL     -0.151584
     73 C23        -6.8060   -3.7180    1.1910 c3        1 MOL     -0.014023
     74 C24        -5.4000   -4.2680    1.5690 c         1 MOL      0.488748
     75 O13        -5.3020   -5.2210    2.3870 o         1 MOL     -0.572112
     76 H32        -6.5400   -1.7510    0.4740 hn        1 MOL      0.207654
     77 H33        -7.5060   -4.5270    0.9580 h1        1 MOL      0.068420
     78 H34        -7.2510   -3.2970    2.0970 h1        1 MOL      0.068420
     79 N8         -4.2910   -3.8010    0.9230 n         1 MOL     -0.309096
     80 C25        -2.9240   -4.4170    0.9940 c3        1 MOL     -0.165383
     81 C26        -1.7690   -3.4060    1.1170 c         1 MOL      0.718160
     82 O14        -1.8300   -2.3910    0.4390 o         1 MOL     -0.670432
     83 C27        -2.6170   -5.2630   -0.2130 c3        1 MOL      0.544338
     84 C28        -2.9480   -6.6600    0.1960 c3        1 MOL     -0.459962
     85 O15        -3.3420   -5.0480   -1.3350 oh        1 MOL     -0.618108
     86 H35        -4.3400   -3.1130    0.1760 hn        1 MOL      0.255832
     87 H36        -2.9560   -5.0530    1.8860 h1        1 MOL      0.103257
     88 H37        -1.5590   -5.2270   -0.4830 h1        1 MOL     -0.068004
     89 H38        -3.4510   -4.1010   -1.3090 ho        1 MOL      0.409910
     90 H39        -2.4610   -6.8750    1.1520 hc        1 MOL      0.107281
     91 H40        -4.0210   -6.6870    0.3880 hc        1 MOL      0.107281
     92 H41        -2.6890   -7.4130   -0.5470 hc        1 MOL      0.107281
     93 N9         -0.7280   -3.6810    1.9350 n         1 MOL     -0.753039
     94 C29         0.5100   -2.7930    2.0130 c3        1 MOL      0.137873
     95 C30         1.6510   -3.4670    1.1850 c         1 MOL      0.427211
     96 O16         2.0460   -4.6230    1.3900 o         1 MOL     -0.541923
     97 C31         0.9650   -2.6440    3.4460 c3        1 MOL      0.214276
     98 C32        -0.2300   -2.1690    4.3090 c3        1 MOL      0.064819
     99 C33         2.1490   -1.6820    3.5980 c3        1 MOL     -0.508024
    100 C34         0.0320   -2.4420    5.7950 c3        1 MOL     -0.240242
    101 H42        -0.7160   -4.6180    2.3190 hn        1 MOL      0.350811
    102 H43         0.3360   -1.8480    1.5020 h1        1 MOL      0.141747
    103 H44         1.0970   -3.6860    3.7530 hc        1 MOL     -0.011887
    104 H45        -1.1930   -2.6350    4.1100 hc        1 MOL      0.014398
    105 H46        -0.3120   -1.0930    4.1470 hc        1 MOL      0.014398
    106 H47         1.7760   -0.6820    3.4070 hc        1 MOL      0.109116
    107 H48         2.6300   -1.6770    4.5710 hc        1 MOL      0.109116
    108 H49         2.8300   -1.8150    2.7530 hc        1 MOL      0.109116
    109 H50        -0.7540   -2.1350    6.4860 hc        1 MOL      0.054887
    110 H51         0.1880   -3.4900    6.0630 hc        1 MOL      0.054887
    111 H52         1.0080   -2.1030    6.1290 hc        1 MOL      0.054887
    112 N10         2.2720   -2.6870    0.2940 n         1 MOL     -0.097939
    113 C35         3.5250   -2.8940   -0.4540 c3        1 MOL     -0.073982
    114 C36         4.8130   -2.4200    0.2210 c         1 MOL      0.549353
    115 O17         4.7590   -1.5540    1.0970 o         1 MOL     -0.355591
    116 C37         3.4910   -2.2480   -1.8290 c3        1 MOL      0.227661
    117 C38         2.3840   -2.7310   -2.8140 c3        1 MOL     -0.456198
    118 O18         3.2570   -0.8770   -1.7130 oh        1 MOL     -0.608359
    119 H53         1.9730   -1.7410    0.1280 hn        1 MOL      0.064996
    120 H54         3.5810   -3.9850   -0.5570 h1        1 MOL      0.062431
    121 H55         4.4390   -2.3670   -2.3480 h1        1 MOL      0.021364
    122 H56         2.3320   -0.7000   -1.5330 ho        1 MOL      0.455279
    123 H57         1.4320   -2.6790   -2.2880 hc        1 MOL      0.132223
    124 H58         2.4050   -2.1470   -3.7380 hc        1 MOL      0.132223
    125 H59         2.4580   -3.7980   -3.0160 hc        1 MOL      0.132223
    126 N11         5.9360   -3.0280   -0.2290 n         1 MOL     -0.533651
    127 C39         7.2700   -2.6870    0.3800 c3        1 MOL      0.002762
    128 C40         7.6170   -1.2350    0.4120 c         1 MOL      0.313712
    129 O19         7.9730   -0.6780    1.4200 o         1 MOL     -0.473553
    130 C41         8.4630   -3.4450   -0.2300 c3        1 MOL      0.133068
    131 C42         8.3620   -4.9500   -0.1430 c3        1 MOL     -0.363254
    132 O20         8.5450   -3.2450   -1.5980 oh        1 MOL     -0.616888
    133 H60         5.8890   -3.5320   -1.1010 hn        1 MOL      0.313589
    134 H61         7.2530   -3.0010    1.4260 h1        1 MOL      0.140988
    135 H62         9.3350   -3.0620    0.3090 h1        1 MOL      0.084096
    136 H63         9.3320   -3.6590   -1.9290 ho        1 MOL      0.422947
    137 H64         7.5150   -5.4270   -0.6530 hc        1 MOL      0.113956
    138 H65         9.1490   -5.5300   -0.6320 hc        1 MOL      0.113956
    139 H66         8.3850   -5.2810    0.9000 hc        1 MOL      0.113956
    140 N12         7.2990   -0.5210   -0.6480 n         1 MOL     -0.083678
    141 C43         7.4700    0.8670   -0.7330 c3        1 MOL     -0.068345
    142 C44         6.4370    1.6780    0.0810 c         1 MOL      0.477102
    143 O21         6.7380    2.5970    0.8270 o         1 MOL     -0.488476
    144 C45         7.4500    1.3330   -2.1560 c3        1 MOL     -0.109183
    145 C46         8.7930    1.0260   -2.8870 c3        1 MOL     -0.044852
    146 C47         8.8870    1.8220   -4.1870 c3        1 MOL     -0.146600
    147 C48         7.9940    1.1630   -5.2630 c3        1 MOL      0.072780
    148 N13         7.8860    2.0530   -6.4720 n4        1 MOL     -0.425432
    149 H67         7.0310   -1.0130   -1.4900 hn        1 MOL      0.246683
    150 H68         8.4370    1.0870   -0.2890 h1        1 MOL      0.099054
    151 H69         7.3220    2.4060   -2.2100 hc        1 MOL      0.060329
    152 H70         6.6940    0.8180   -2.7510 hc        1 MOL      0.060329
    153 H71         9.0650   -0.0230   -3.0350 hc        1 MOL      0.045058
    154 H72         9.5300    1.4920   -2.2370 hc        1 MOL      0.045058
    155 H73         9.9130    2.0330   -4.4770 hc        1 MOL      0.079013
    156 H74         8.4360    2.7910   -3.9990 hc        1 MOL      0.079013
    157 H75         7.0380    0.9420   -4.7860 hx        1 MOL      0.081186
    158 H76         8.4180    0.2000   -5.5370 hx        1 MOL      0.081186
    159 H77         7.8600    3.0080   -6.1460 hn        1 MOL      0.335096
    160 H78         8.7020    1.9330   -7.0650 hn        1 MOL      0.335096
    161 H79         7.0630    1.8490   -7.0130 hn        1 MOL      0.335096
    162 N14         5.1670    1.2600    0.0880 n         1 MOL     -0.396389
    163 C49         4.1880    1.8940    1.0310 c3        1 MOL      0.000734
    164 C50         4.6470    1.9790    2.4680 c         1 MOL      0.406600
    165 O22         4.7200    3.0800    3.0670 o         1 MOL     -0.553816
    166 C51         2.7640    1.2760    0.8830 c3        1 MOL      0.027255
    167 C52         1.9670    1.6040   -0.4080 c3        1 MOL      0.073198
    168 C53         0.6990    0.7160   -0.4770 c         1 MOL      0.717809
    169 O23        -0.4330    1.2360   -0.3340 o         1 MOL     -0.777192
    170 O24         0.7950   -0.4690   -0.8830 o         1 MOL     -0.777192
    171 H80         5.0210    0.2850   -0.1640 hn        1 MOL      0.147969
    172 H81         4.0490    2.9480    0.7580 h1        1 MOL      0.071391
    173 H82         2.2180    1.5550    1.7800 hc        1 MOL      0.024021
    174 H83         2.8440    0.1940    0.8360 hc        1 MOL      0.024021
    175 H84         2.5400    1.4670   -1.3250 hc        1 MOL     -0.052091
    176 H85         1.6380    2.6440   -0.3170 hc        1 MOL     -0.052091
    177 N15         4.9970    0.8230    2.9400 n         1 MOL      0.012356
    178 C54         5.5500    0.6140    4.2850 c3        1 MOL     -0.289758
    179 H86         4.8170    0.9230    5.0310 h1        1 MOL      0.108879
    180 H87         5.7830   -0.4420    4.4230 h1        1 MOL      0.108879
    181 H88         6.4580    1.2050    4.4010 h1        1 MOL      0.108879
    182 H89         4.9460    0.0360    2.3140 hn        1 MOL      0.132461
    183 Ca1        -1.9810   -0.5090   -1.5710 Ca        1 MOL      1.815204
    184 O25        -0.4100    0.5530   -3.4160 oh        1 MOL     -0.843235
    185 H90         0.4520    0.9710   -3.4410 ho        1 MOL      0.395114
    186 H91        -0.9650    1.1130   -3.9690 ho        1 MOL      0.395114
    187 O26        -1.1410   -2.7540   -2.7490 oh        1 MOL     -0.843235
    188 H92        -0.8920   -2.6720   -3.6630 ho        1 MOL      0.395114
    189 H93        -1.3560   -3.6890   -2.6390 ho        1 MOL      0.395114
@<TRIPOS>BOND
     1    1    2 1   
     2    1    4 1   
     3    1    5 1   
     4    1    6 1   
     5    2    3 2   
     6    2    7 1   
     7    7    8 1   
     8    7   15 1   
     9    8    9 1   
    10    8   11 1   
    11    8   16 1   
    12    9   10 2   
    13    9   19 1   
    14   11   12 1   
    15   11   17 1   
    16   11   18 1   
    17   12   13 1   
    18   12   14 1   
    19   19   20 1   
    20   19   28 1   
    21   20   21 1   
    22   20   23 1   
    23   20   29 1   
    24   21   22 2   
    25   21   41 1   
    26   23   24 1   
    27   23   30 1   
    28   23   31 1   
    29   24   25 1   
    30   24   32 1   
    31   24   33 1   
    32   25   26 1   
    33   25   34 1   
    34   25   35 1   
    35   26   27 1   
    36   26   36 1   
    37   26   37 1   
    38   27   38 1   
    39   27   39 1   
    40   27   40 1   
    41   41   42 1   
    42   41   49 1   
    43   42   43 1   
    44   42   45 1   
    45   42   50 1   
    46   43   44 2   
    47   43   53 1   
    48   45   46 1   
    49   45   51 1   
    50   45   52 1   
    51   46   47 1   
    52   46   48 1   
    53   53   54 1   
    54   53   57 1   
    55   54   55 1   
    56   54   58 1   
    57   54   59 1   
    58   55   56 2   
    59   55   60 1   
    60   60   61 1   
    61   60   68 1   
    62   61   62 1   
    63   61   64 1   
    64   61   69 1   
    65   62   63 2   
    66   62   72 1   
    67   64   65 1   
    68   64   70 1   
    69   64   71 1   
    70   65   66 1   
    71   65   67 1   
    72   72   73 1   
    73   72   76 1   
    74   73   74 1   
    75   73   77 1   
    76   73   78 1   
    77   74   75 2   
    78   74   79 1   
    79   79   80 1   
    80   79   86 1   
    81   80   81 1   
    82   80   83 1   
    83   80   87 1   
    84   81   82 2   
    85   81   93 1   
    86   83   84 1   
    87   83   85 1   
    88   83   88 1   
    89   84   90 1   
    90   84   91 1   
    91   84   92 1   
    92   85   89 1   
    93   93   94 1   
    94   93  101 1   
    95   94   95 1   
    96   94   97 1   
    97   94  102 1   
    98   95   96 2   
    99   95  112 1   
   100   97   98 1   
   101   97   99 1   
   102   97  103 1   
   103   98  100 1   
   104   98  104 1   
   105   98  105 1   
   106   99  106 1   
   107   99  107 1   
   108   99  108 1   
   109  100  109 1   
   110  100  110 1   
   111  100  111 1   
   112  112  113 1   
   113  112  119 1   
   114  113  114 1   
   115  113  116 1   
   116  113  120 1   
   117  114  115 2   
   118  114  126 1   
   119  116  117 1   
   120  116  118 1   
   121  116  121 1   
   122  117  123 1   
   123  117  124 1   
   124  117  125 1   
   125  118  122 1   
   126  126  127 1   
   127  126  133 1   
   128  127  128 1   
   129  127  130 1   
   130  127  134 1   
   131  128  129 2   
   132  128  140 1   
   133  130  131 1   
   134  130  132 1   
   135  130  135 1   
   136  131  137 1   
   137  131  138 1   
   138  131  139 1   
   139  132  136 1   
   140  140  141 1   
   141  140  149 1   
   142  141  142 1   
   143  141  144 1   
   144  141  150 1   
   145  142  143 2   
   146  142  162 1   
   147  144  145 1   
   148  144  151 1   
   149  144  152 1   
   150  145  146 1   
   151  145  153 1   
   152  145  154 1   
   153  146  147 1   
   154  146  155 1   
   155  146  156 1   
   156  147  148 1   
   157  147  157 1   
   158  147  158 1   
   159  148  159 1   
   160  148  160 1   
   161  148  161 1   
   162  162  163 1   
   163  162  171 1   
   164  163  164 1   
   165  163  166 1   
   166  163  172 1   
   167  164  165 2   
   168  164  177 1   
   169  166  167 1   
   170  166  173 1   
   171  166  174 1   
   172  167  168 1   
   173  167  175 1   
   174  167  176 1   
   175  168  169 1   
   176  168  170 1   
   177  177  178 1   
   178  177  182 1   
   179  178  179 1   
   180  178  180 1   
   181  178  181 1   
   182  184  185 1   
   183  184  186 1   
   184  187  188 1   
   185  187  189 1   
@<TRIPOS>SUBSTRUCTURE
     1 MOL         1 TEMP              0 ****  ****    0 ROOT
