@<TRIPOS>MOLECULE
MOL
  189   185     1     0     0
SMALL
resp


@<TRIPOS>ATOM
      1 C1          0.2790    3.0190    4.6770 c3        1 MOL     -0.263953
      2 C2         -0.3420    2.9780    3.2530 c         1 MOL      0.535108
      3 O1          0.2250    3.4980    2.2900 o         1 MOL     -0.546477
      4 H1          0.9780    2.1900    4.7920 hc        1 MOL      0.073949
      5 H2          0.8090    3.9610    4.8170 hc        1 MOL      0.073949
      6 H3         -0.5120    2.9320    5.4220 hc        1 MOL      0.073949
      7 N1         -1.5020    2.3360    3.1560 n         1 MOL     -0.429894
      8 C3         -2.1240    1.8800    1.9570 c3        1 MOL      0.137699
      9 C4         -2.9200    2.9960    1.2750 c         1 MOL      0.356143
     10 O2         -4.1250    3.1000    1.4940 o         1 MOL     -0.436832
     11 C5         -2.9470    0.6380    2.3530 c3        1 MOL     -0.312068
     12 C6         -3.8210    0.0370    1.2410 c         1 MOL      0.596389
     13 O3         -4.9830   -0.3840    1.6160 o         1 MOL     -0.599386
     14 O4         -3.3840    0.1140    0.0510 o         1 MOL     -0.599386
     15 H4         -1.9440    2.0210    4.0070 hn        1 MOL      0.289839
     16 H5         -1.3080    1.6030    1.2830 h1        1 MOL      0.064137
     17 H6         -3.5740    0.8320    3.2270 hc        1 MOL      0.086765
     18 H7         -2.2270   -0.1470    2.5810 hc        1 MOL      0.086765
     19 N2         -2.2830    3.9020    0.5830 n         1 MOL     -0.234274
     20 C7         -3.0110    5.1460    0.1300 c3        1 MOL     -0.027222
     21 C8         -3.9860    4.9500   -1.0290 c         1 MOL      0.499235
     22 O5         -4.9560    5.6640   -1.1150 o         1 MOL     -0.542660
     23 C9         -1.9340    6.2500   -0.1290 c3        1 MOL     -0.121788
     24 C10        -1.4060    6.8650    1.1460 c3        1 MOL     -0.016054
     25 C11        -2.3570    7.1740    2.3230 c3        1 MOL      0.065377
     26 C12        -1.7080    8.0740    3.4280 c3        1 MOL      0.012557
     27 N3         -2.7020    8.6020    4.3460 n4        1 MOL     -0.376335
     28 H8         -1.2760    3.9210    0.5960 hn        1 MOL      0.271363
     29 H9         -3.7490    5.4540    0.8670 h1        1 MOL      0.025736
     30 H10        -2.4930    7.0320   -0.6590 hc        1 MOL      0.070647
     31 H11        -1.0760    5.9410   -0.7290 hc        1 MOL      0.070647
     32 H12        -0.9950    7.8190    0.8160 hc        1 MOL      0.018489
     33 H13        -0.6800    6.1770    1.5910 hc        1 MOL      0.018489
     34 H14        -2.8530    6.3430    2.8020 hc        1 MOL      0.027568
     35 H15        -3.1260    7.8430    1.9340 hc        1 MOL      0.027568
     36 H16        -1.3120    8.9060    2.8390 hx        1 MOL      0.067573
     37 H17        -0.9010    7.5270    3.9140 hx        1 MOL      0.067573
     38 H18        -2.2830    9.2670    4.9850 hn        1 MOL      0.336442
     39 H19        -3.3600    9.1950    3.8530 hn        1 MOL      0.336442
     40 H20        -3.0900    7.9460    5.0100 hn        1 MOL      0.336442
     41 N4         -3.6860    3.9970   -1.8840 n         1 MOL     -0.430230
     42 C13        -4.6920    3.5150   -2.8640 c3        1 MOL      0.184194
     43 C14        -5.7420    2.5230   -2.3450 c         1 MOL      0.320362
     44 O6         -6.7350    2.2450   -2.9820 o         1 MOL     -0.522210
     45 C15        -3.9420    2.8810   -4.0100 c3        1 MOL     -0.291671
     46 C16        -2.8550    1.8350   -3.6760 c         1 MOL      0.878794
     47 O7         -1.9310    1.6210   -4.4710 o         1 MOL     -0.744454
     48 O8         -2.9900    1.1360   -2.6550 o         1 MOL     -0.744454
     49 H21        -2.8780    3.3950   -1.7970 hn        1 MOL      0.253900
     50 H22        -5.2410    4.3360   -3.3360 h1        1 MOL      0.070187
     51 H23        -3.4050    3.6420   -4.5730 hc        1 MOL      0.055587
     52 H24        -4.6190    2.4040   -4.7270 hc        1 MOL      0.055587
     53 N5         -5.5620    2.0910   -1.1010 n         1 MOL      0.071579
     54 C17        -6.5960    1.6190   -0.2270 c3        1 MOL     -0.115605
     55 C18        -7.1170    0.2430   -0.6140 c         1 MOL      0.512502
     56 O9         -8.3450    0.0170   -0.4510 o         1 MOL     -0.579013
     57 H25        -4.7170    2.2830   -0.5820 hn        1 MOL      0.027953
     58 H26        -7.3940    2.3610   -0.3260 h1        1 MOL      0.063465
     59 H27        -6.1600    1.6750    0.7650 h1        1 MOL      0.063465
     60 N6         -6.2090   -0.7000   -1.0370 n         1 MOL     -0.169861
     61 C19        -6.6370   -1.9420   -1.5790 c3        1 MOL     -0.008657
     62 C20        -6.7750   -3.0800   -0.5190 c         1 MOL      0.365910
     63 O10        -7.1670   -4.1590   -0.9090 o         1 MOL     -0.502365
     64 C21        -5.7610   -2.2340   -2.7760 c3        1 MOL     -0.322350
     65 C22        -4.2650   -2.3580   -2.4690 c         1 MOL      0.838706
     66 O11        -3.4510   -2.0050   -3.3060 o         1 MOL     -0.752364
     67 O12        -3.8650   -2.7480   -1.3800 o         1 MOL     -0.752364
     68 H28        -5.2310   -0.4260   -0.9810 hn        1 MOL      0.099592
     69 H29        -7.6270   -1.7210   -1.9830 h1        1 MOL      0.117623
     70 H30        -5.9150   -1.4450   -3.5080 hc        1 MOL      0.101286
     71 H31        -6.0580   -3.2070   -3.1700 hc        1 MOL      0.101286
     72 N7         -6.3960   -2.8710    0.7290 n         1 MOL     -0.185322
     73 C23        -6.3280   -3.8980    1.8350 c3        1 MOL     -0.212170
     74 C24        -5.0000   -4.6880    1.8200 c         1 MOL      0.615394
     75 O13        -4.8830   -5.6770    2.5710 o         1 MOL     -0.596269
     76 H32        -6.0510   -1.9440    0.9410 hn        1 MOL      0.231128
     77 H33        -7.0870   -4.6790    1.7310 h1        1 MOL      0.108298
     78 H34        -6.3380   -3.4780    2.8460 h1        1 MOL      0.108298
     79 N8         -4.0670   -4.3290    0.8910 n         1 MOL     -0.319345
     80 C25        -2.6500   -4.8210    0.9130 c3        1 MOL     -0.425178
     81 C26        -1.5580   -3.6780    0.9240 c         1 MOL      0.857859
     82 O14        -1.6870   -2.7230    0.2450 o         1 MOL     -0.638152
     83 C27        -2.4310   -5.6910   -0.3390 c3        1 MOL      0.601055
     84 C28        -2.9430   -7.1550   -0.0900 c3        1 MOL     -0.417492
     85 O15        -3.1200   -5.2970   -1.4940 oh        1 MOL     -0.749462
     86 H35        -4.2980   -3.5640    0.2740 hn        1 MOL      0.268705
     87 H36        -2.4610   -5.4200    1.8090 h1        1 MOL      0.140783
     88 H37        -1.3700   -5.7690   -0.5570 h1        1 MOL     -0.055614
     89 H38        -3.3650   -4.3660   -1.4800 ho        1 MOL      0.558742
     90 H39        -3.9780   -7.2400    0.2670 hc        1 MOL      0.095867
     91 H40        -2.8750   -7.7720   -0.9800 hc        1 MOL      0.095867
     92 H41        -2.2920   -7.7080    0.5760 hc        1 MOL      0.095867
     93 N9         -0.4540   -4.0070    1.6420 n         1 MOL     -0.782416
     94 C29         0.6560   -3.0290    1.7710 c3        1 MOL      0.206920
     95 C30         1.8580   -3.5170    0.9590 c         1 MOL      0.443655
     96 O16         2.2190   -4.7120    1.0020 o         1 MOL     -0.583746
     97 C31         0.9760   -2.7820    3.2590 c3        1 MOL      0.156461
     98 C32        -0.2730   -2.6680    4.1800 c3        1 MOL      0.264080
     99 C33         1.7050   -1.4130    3.2870 c3        1 MOL     -0.750261
    100 C34         0.0960   -2.2560    5.6290 c3        1 MOL     -0.275164
    101 H42        -0.4290   -4.9380    2.0470 hn        1 MOL      0.347303
    102 H43         0.3700   -2.0980    1.2870 h1        1 MOL      0.010144
    103 H44         1.6500   -3.5540    3.6180 hc        1 MOL     -0.010774
    104 H45        -0.8490   -3.5940    4.2170 hc        1 MOL     -0.042955
    105 H46        -0.9500   -1.9020    3.8080 hc        1 MOL     -0.042955
    106 H47         1.0280   -0.6550    2.9110 hc        1 MOL      0.167536
    107 H48         2.0430   -1.2080    4.3050 hc        1 MOL      0.167536
    108 H49         2.4910   -1.2940    2.5450 hc        1 MOL      0.167536
    109 H50         1.0430   -2.6550    5.9820 hc        1 MOL      0.057702
    110 H51         0.0670   -1.1700    5.7160 hc        1 MOL      0.057702
    111 H52        -0.6980   -2.6640    6.2570 hc        1 MOL      0.057702
    112 N10         2.4280   -2.6770    0.1150 n         1 MOL     -0.085255
    113 C35         3.6960   -2.9730   -0.6970 c3        1 MOL     -0.128155
    114 C36         4.8700   -2.6660    0.2530 c         1 MOL      0.284929
    115 O17         4.6880   -1.9810    1.2670 o         1 MOL     -0.312761
    116 C37         3.8180   -2.1720   -2.0300 c3        1 MOL      0.129956
    117 C38         2.4670   -2.2420   -2.7770 c3        1 MOL     -0.351159
    118 O18         4.1680   -0.8140   -1.8850 oh        1 MOL     -0.297505
    119 H53         1.9970   -1.7620    0.0700 hn        1 MOL      0.297858
    120 H54         3.6610   -4.0360   -0.9350 h1        1 MOL      0.104896
    121 H55         4.6220   -2.5840   -2.6300 h1        1 MOL      0.017642
    122 H56         4.3010   -0.4210   -2.7480 ho        1 MOL      0.358361
    123 H57         1.6060   -1.9280   -2.1850 hc        1 MOL      0.086861
    124 H58         2.5000   -1.6370   -3.6800 hc        1 MOL      0.086861
    125 H59         2.2880   -3.2900   -3.0180 hc        1 MOL      0.086861
    126 N11         6.0610   -3.1840   -0.1450 n         1 MOL     -0.215350
    127 C39         7.2680   -2.7560    0.4580 c3        1 MOL     -0.136022
    128 C40         7.5680   -1.2530    0.3380 c         1 MOL      0.479660
    129 O19         8.0170   -0.6370    1.2700 o         1 MOL     -0.525320
    130 C41         8.5140   -3.5860    0.0260 c3        1 MOL      0.218864
    131 C42         8.4280   -5.0440    0.4070 c3        1 MOL     -0.206314
    132 O20         8.6240   -3.6020   -1.4080 oh        1 MOL     -0.666026
    133 H60         6.0050   -3.8630   -0.8940 hn        1 MOL      0.276466
    134 H61         7.1240   -2.8810    1.5280 h1        1 MOL      0.130773
    135 H62         9.3830   -3.1470    0.5180 h1        1 MOL      0.072746
    136 H63         9.1860   -4.3200   -1.6930 ho        1 MOL      0.423411
    137 H64         7.5140   -5.5650    0.1550 hc        1 MOL      0.062167
    138 H65         9.2900   -5.6440    0.0960 hc        1 MOL      0.062167
    139 H66         8.5330   -5.0070    1.4920 hc        1 MOL      0.062167
    140 N12         7.3260   -0.6290   -0.8060 n         1 MOL     -0.281121
    141 C43         7.5290    0.8620   -0.8680 c3        1 MOL      0.100015
    142 C44         6.3620    1.6000   -0.1820 c         1 MOL      0.177633
    143 O21         6.5530    2.7060    0.4320 o         1 MOL     -0.538233
    144 C45         7.8210    1.3470   -2.3070 c3        1 MOL     -0.127812
    145 C46         7.9840    2.8570   -2.4140 c3        1 MOL      0.235334
    146 C47         8.5900    3.1660   -3.7930 c3        1 MOL     -0.072367
    147 C48         8.3260    4.5910   -4.2180 c3        1 MOL     -0.064129
    148 N13         9.1200    5.5080   -3.4820 n4        1 MOL     -0.323586
    149 H67         6.9660   -1.1210   -1.6140 hn        1 MOL      0.208105
    150 H68         8.4550    1.1170   -0.3540 h1        1 MOL      0.113327
    151 H69         7.0080    1.0750   -2.9810 hc        1 MOL      0.025940
    152 H70         8.7310    0.8020   -2.5650 hc        1 MOL      0.025940
    153 H71         8.6880    3.2160   -1.6560 hc        1 MOL     -0.019270
    154 H72         7.0030    3.3320   -2.3220 hc        1 MOL     -0.019270
    155 H73         8.1980    2.5340   -4.5920 hc        1 MOL      0.039747
    156 H74         9.6520    3.0100   -3.5890 hc        1 MOL      0.039747
    157 H75         7.2600    4.8100   -4.1580 hx        1 MOL      0.113416
    158 H76         8.4540    4.6120   -5.3040 hx        1 MOL      0.113416
    159 H77        10.0800    5.4350   -3.7730 hn        1 MOL      0.297438
    160 H78         8.8550    6.4620   -3.6830 hn        1 MOL      0.297438
    161 H79         8.9660    5.4720   -2.4850 hn        1 MOL      0.297438
    162 N14         5.1190    1.0650   -0.0690 n         1 MOL      0.039442
    163 C49         4.1870    1.6010    0.9800 c3        1 MOL     -0.086120
    164 C50         4.6450    1.4110    2.4500 c         1 MOL      0.534136
    165 O22         4.3530    2.2920    3.2460 o         1 MOL     -0.558712
    166 C51         2.7640    1.0640    0.7680 c3        1 MOL     -0.125075
    167 C52         2.0780    1.4760   -0.4960 c3        1 MOL     -0.066893
    168 C53         0.7590    0.7330   -0.5850 c         1 MOL      0.692238
    169 O23        -0.2660    1.3310   -1.0170 o         1 MOL     -0.741949
    170 O24         0.7050   -0.5400   -0.4520 o         1 MOL     -0.741949
    171 H80         4.8930    0.2220   -0.5860 hn        1 MOL     -0.074201
    172 H81         4.0460    2.6820    0.9470 h1        1 MOL      0.094245
    173 H82         2.1830    1.4140    1.6230 hc        1 MOL      0.100074
    174 H83         2.8940   -0.0140    0.7710 hc        1 MOL      0.100074
    175 H84         2.6500    1.2940   -1.4010 hc        1 MOL      0.011489
    176 H85         1.9500    2.5600   -0.4860 hc        1 MOL      0.011489
    177 N15         5.4020    0.3000    2.8100 n         1 MOL     -0.063328
    178 C54         6.0580    0.2070    4.1240 c3        1 MOL     -0.466804
    179 H86         6.6200   -0.7260    4.1830 h1        1 MOL      0.150816
    180 H87         6.7390    1.0480    4.2520 h1        1 MOL      0.150816
    181 H88         5.3030    0.2260    4.9100 h1        1 MOL      0.150816
    182 H89         5.4500   -0.4850    2.1810 hn        1 MOL      0.131842
    183 Ca1        -1.6830   -0.8190   -1.5880 Ca        1 MOL      1.746705
    184 O25        -0.3950   -0.2120   -3.9140 oh        1 MOL     -0.862092
    185 H90        -0.8980    0.5230   -4.2670 ho        1 MOL      0.403838
    186 H91         0.1010   -0.5430   -4.6540 ho        1 MOL      0.403838
    187 O26        -0.5970   -3.3600   -2.3320 oh        1 MOL     -0.862092
    188 H92         0.2360   -3.7790   -2.1150 ho        1 MOL      0.403838
    189 H93        -0.8450   -3.7290   -3.1790 ho        1 MOL      0.403838
@<TRIPOS>BOND
     1    1    2 1   
     2    1    4 1   
     3    1    5 1   
     4    1    6 1   
     5    2    3 2   
     6    2    7 1   
     7    7    8 1   
     8    7   15 1   
     9    8    9 1   
    10    8   11 1   
    11    8   16 1   
    12    9   10 2   
    13    9   19 1   
    14   11   12 1   
    15   11   17 1   
    16   11   18 1   
    17   12   13 1   
    18   12   14 1   
    19   19   20 1   
    20   19   28 1   
    21   20   21 1   
    22   20   23 1   
    23   20   29 1   
    24   21   22 2   
    25   21   41 1   
    26   23   24 1   
    27   23   30 1   
    28   23   31 1   
    29   24   25 1   
    30   24   32 1   
    31   24   33 1   
    32   25   26 1   
    33   25   34 1   
    34   25   35 1   
    35   26   27 1   
    36   26   36 1   
    37   26   37 1   
    38   27   38 1   
    39   27   39 1   
    40   27   40 1   
    41   41   42 1   
    42   41   49 1   
    43   42   43 1   
    44   42   45 1   
    45   42   50 1   
    46   43   44 2   
    47   43   53 1   
    48   45   46 1   
    49   45   51 1   
    50   45   52 1   
    51   46   47 1   
    52   46   48 1   
    53   53   54 1   
    54   53   57 1   
    55   54   55 1   
    56   54   58 1   
    57   54   59 1   
    58   55   56 2   
    59   55   60 1   
    60   60   61 1   
    61   60   68 1   
    62   61   62 1   
    63   61   64 1   
    64   61   69 1   
    65   62   63 2   
    66   62   72 1   
    67   64   65 1   
    68   64   70 1   
    69   64   71 1   
    70   65   66 1   
    71   65   67 1   
    72   72   73 1   
    73   72   76 1   
    74   73   74 1   
    75   73   77 1   
    76   73   78 1   
    77   74   75 2   
    78   74   79 1   
    79   79   80 1   
    80   79   86 1   
    81   80   81 1   
    82   80   83 1   
    83   80   87 1   
    84   81   82 2   
    85   81   93 1   
    86   83   84 1   
    87   83   85 1   
    88   83   88 1   
    89   84   90 1   
    90   84   91 1   
    91   84   92 1   
    92   85   89 1   
    93   93   94 1   
    94   93  101 1   
    95   94   95 1   
    96   94   97 1   
    97   94  102 1   
    98   95   96 2   
    99   95  112 1   
   100   97   98 1   
   101   97   99 1   
   102   97  103 1   
   103   98  100 1   
   104   98  104 1   
   105   98  105 1   
   106   99  106 1   
   107   99  107 1   
   108   99  108 1   
   109  100  109 1   
   110  100  110 1   
   111  100  111 1   
   112  112  113 1   
   113  112  119 1   
   114  113  114 1   
   115  113  116 1   
   116  113  120 1   
   117  114  115 2   
   118  114  126 1   
   119  116  117 1   
   120  116  118 1   
   121  116  121 1   
   122  117  123 1   
   123  117  124 1   
   124  117  125 1   
   125  118  122 1   
   126  126  127 1   
   127  126  133 1   
   128  127  128 1   
   129  127  130 1   
   130  127  134 1   
   131  128  129 2   
   132  128  140 1   
   133  130  131 1   
   134  130  132 1   
   135  130  135 1   
   136  131  137 1   
   137  131  138 1   
   138  131  139 1   
   139  132  136 1   
   140  140  141 1   
   141  140  149 1   
   142  141  142 1   
   143  141  144 1   
   144  141  150 1   
   145  142  143 2   
   146  142  162 1   
   147  144  145 1   
   148  144  151 1   
   149  144  152 1   
   150  145  146 1   
   151  145  153 1   
   152  145  154 1   
   153  146  147 1   
   154  146  155 1   
   155  146  156 1   
   156  147  148 1   
   157  147  157 1   
   158  147  158 1   
   159  148  159 1   
   160  148  160 1   
   161  148  161 1   
   162  162  163 1   
   163  162  171 1   
   164  163  164 1   
   165  163  166 1   
   166  163  172 1   
   167  164  165 2   
   168  164  177 1   
   169  166  167 1   
   170  166  173 1   
   171  166  174 1   
   172  167  168 1   
   173  167  175 1   
   174  167  176 1   
   175  168  169 1   
   176  168  170 1   
   177  177  178 1   
   178  177  182 1   
   179  178  179 1   
   180  178  180 1   
   181  178  181 1   
   182  184  185 1   
   183  184  186 1   
   184  187  188 1   
   185  187  189 1   
@<TRIPOS>SUBSTRUCTURE
     1 MOL         1 TEMP              0 ****  ****    0 ROOT
