@<TRIPOS>MOLECULE
MOL
  182   178     1     0     0
SMALL
resp


@<TRIPOS>ATOM
      1 C1         -1.3760   -4.2630    5.4530 c3        1 MOL     -0.378606
      2 C2         -0.9180   -3.5530    4.1480 c         1 MOL      0.701452
      3 O1         -1.6750   -3.4650    3.2110 o         1 MOL     -0.634214
      4 H1         -0.5030   -4.4970    6.0640 hc        1 MOL      0.099810
      5 H2         -2.0430   -3.6050    6.0100 hc        1 MOL      0.099810
      6 H3         -1.9000   -5.1850    5.2010 hc        1 MOL      0.099810
      7 N1          0.3720   -3.2170    3.9890 n         1 MOL     -0.547996
      8 C3          1.0260   -2.8160    2.6820 c3        1 MOL      0.199105
      9 C4          1.1960   -4.0410    1.7640 c         1 MOL      0.433980
     10 O2          1.8220   -5.0370    2.1640 o         1 MOL     -0.540527
     11 C5          2.3860   -2.0650    2.9510 c3        1 MOL     -0.241642
     12 C6          3.2070   -1.6140    1.7290 c         1 MOL      0.886105
     13 O3          2.7390   -1.7450    0.5890 o         1 MOL     -0.728386
     14 O4          4.2970   -1.0450    1.9630 o         1 MOL     -0.728386
     15 H4          0.9960   -3.2460    4.7770 hn        1 MOL      0.301752
     16 H5          0.3550   -2.1040    2.2010 h1        1 MOL     -0.040872
     17 H6          3.0350   -2.7010    3.5660 hc        1 MOL      0.062802
     18 H7          2.1990   -1.1540    3.5140 hc        1 MOL      0.062802
     19 N2          0.6460   -3.9330    0.5300 n         1 MOL     -0.148205
     20 C7          0.6330   -5.0390   -0.3920 c3        1 MOL     -0.249793
     21 C8          1.8700   -5.1820   -1.2500 c         1 MOL      0.593159
     22 O5          1.9350   -6.1640   -2.0570 o         1 MOL     -0.595419
     23 C9         -0.7080   -4.8560   -1.1960 c3        1 MOL      0.111942
     24 C10        -1.9680   -5.2960   -0.4380 c3        1 MOL     -0.062620
     25 C11        -3.2190   -5.7620   -1.1870 c3        1 MOL     -0.157489
     26 C12        -4.5030   -5.8680   -0.3020 c3        1 MOL      0.236289
     27 N3         -4.3600   -6.7760    0.8790 n4        1 MOL     -0.413138
     28 H8          0.2060   -3.0250    0.4280 hn        1 MOL      0.221540
     29 H9          0.5220   -5.9810    0.1440 h1        1 MOL      0.116871
     30 H10        -0.7820   -5.5280   -2.0540 hc        1 MOL      0.016878
     31 H11        -0.8750   -3.8700   -1.6040 hc        1 MOL      0.016878
     32 H12        -2.2150   -4.4620    0.2190 hc        1 MOL      0.032593
     33 H13        -1.6990   -6.1260    0.2190 hc        1 MOL      0.032593
     34 H14        -3.1450   -6.7630   -1.5950 hc        1 MOL      0.064332
     35 H15        -3.3750   -4.9740   -1.9230 hc        1 MOL      0.064332
     36 H16        -5.3040   -6.1740   -0.9690 hx        1 MOL      0.027789
     37 H17        -4.7970   -4.8560   -0.0270 hx        1 MOL      0.027789
     38 H18        -3.9460   -7.6920    0.7950 hn        1 MOL      0.338248
     39 H19        -3.7990   -6.2260    1.5110 hn        1 MOL      0.338248
     40 H20        -5.2570   -6.8200    1.3500 hn        1 MOL      0.338248
     41 N4          2.8730   -4.2990   -1.2440 n         1 MOL     -0.285416
     42 C13         4.1480   -4.4960   -1.9610 c3        1 MOL     -0.084130
     43 C14         5.4100   -4.0000   -1.2210 c         1 MOL      0.507472
     44 O6          6.5320   -4.1490   -1.6300 o         1 MOL     -0.517883
     45 C15         4.1270   -3.7850   -3.3580 c3        1 MOL     -0.188409
     46 C16         3.6410   -2.3280   -3.3670 c         1 MOL      0.975932
     47 O7          3.3750   -1.6640   -2.3400 o         1 MOL     -0.784501
     48 O8          3.4590   -1.8630   -4.5230 o         1 MOL     -0.784501
     49 H21         2.6770   -3.4810   -0.6900 hn        1 MOL      0.126316
     50 H22         4.3760   -5.5500   -2.1280 h1        1 MOL      0.135882
     51 H23         3.3620   -4.2940   -3.9390 hc        1 MOL      0.050012
     52 H24         5.0910   -3.8270   -3.8610 hc        1 MOL      0.050012
     53 N5          5.1140   -3.4180   -0.0510 n         1 MOL     -0.285503
     54 C17         6.1960   -2.9480    0.8670 c3        1 MOL     -0.314119
     55 C18         6.7270   -1.5770    0.6100 c         1 MOL      0.650749
     56 O9          7.7830   -1.2890    1.1930 o         1 MOL     -0.598338
     57 H25         4.2050   -2.9960   -0.0510 hn        1 MOL      0.175315
     58 H26         7.0960   -3.5670    0.8430 h1        1 MOL      0.154058
     59 H27         5.7020   -2.9250    1.8380 h1        1 MOL      0.154058
     60 N6          6.0900   -0.7820   -0.2340 n         1 MOL     -0.224976
     61 C19         6.5500    0.4400   -0.8800 c3        1 MOL     -0.095433
     62 C20         6.4010    1.6970    0.0020 c         1 MOL      0.427628
     63 O10         7.0370    2.6850   -0.3450 o         1 MOL     -0.524324
     64 C21         5.8250    0.5950   -2.2040 c3        1 MOL      0.041998
     65 C22         4.4450    1.2130   -2.0280 c         1 MOL      0.537003
     66 N7          3.9980    1.9990   -3.0020 n         1 MOL     -0.663345
     67 O11         3.7420    0.9080   -1.1080 o         1 MOL     -0.440599
     68 H28         5.0890   -0.9410   -0.2080 hn        1 MOL      0.079103
     69 H29         7.6110    0.3070   -1.0530 h1        1 MOL      0.124272
     70 H30         5.7160   -0.3390   -2.7490 hc        1 MOL      0.012079
     71 H31         6.3860    1.2630   -2.8610 hc        1 MOL      0.012079
     72 H32         4.5930    2.0880   -3.8040 hn        1 MOL      0.327933
     73 H33         3.0170    2.2330   -3.1110 hn        1 MOL      0.327933
     74 N8          5.7920    1.6060    1.1570 n         1 MOL     -0.209157
     75 C23         5.8200    2.7400    2.1550 c3        1 MOL     -0.193506
     76 C24         4.4320    3.4330    2.3170 c         1 MOL      0.510243
     77 O12         4.2700    4.3140    3.1400 o         1 MOL     -0.540055
     78 H34         5.3720    0.7360    1.4290 hn        1 MOL      0.273423
     79 H35         6.5290    3.5220    1.8920 h1        1 MOL      0.134254
     80 H36         6.2870    2.4610    3.1010 h1        1 MOL      0.134254
     81 N9          3.4450    2.9490    1.4970 n         1 MOL     -0.289353
     82 C25         2.0900    3.4990    1.5100 c3        1 MOL      0.068477
     83 C26         0.9630    2.4230    1.4270 c         1 MOL      0.538956
     84 O13         1.2080    1.3600    0.8780 o         1 MOL     -0.642369
     85 C27         1.9650    4.3600    0.2270 c3        1 MOL     -0.155685
     86 C28         3.1360    5.3290    0.0990 ca        1 MOL      0.287268
     87 C29         4.1810    4.9920   -0.7560 ca        1 MOL     -0.358597
     88 C30         2.9400    6.5820    0.6500 ca        1 MOL     -0.358597
     89 C31         5.2300    5.8560   -0.9470 ca        1 MOL     -0.194457
     90 C32         4.0360    7.5040    0.5740 ca        1 MOL     -0.194457
     91 C33         5.1430    7.0950   -0.2390 ca        1 MOL      0.322990
     92 O14         6.0980    7.9840   -0.3660 oh        1 MOL     -0.453949
     93 H37         3.6520    2.1380    0.9250 hn        1 MOL      0.156780
     94 H38         2.0780    4.1710    2.3640 h1        1 MOL      0.073607
     95 H39         1.0480    4.9340    0.3560 hc        1 MOL      0.030293
     96 H40         1.9880    3.8250   -0.7200 hc        1 MOL      0.030293
     97 H41         4.1680    4.0770   -1.3230 ha        1 MOL      0.186078
     98 H42         2.0710    6.8550    1.2440 ha        1 MOL      0.186078
     99 H43         5.9260    5.5470   -1.7190 ha        1 MOL      0.146114
    100 H44         4.0320    8.4910    1.0080 ha        1 MOL      0.146114
    101 H45         5.8760    8.6940    0.2390 ho        1 MOL      0.332974
    102 N10        -0.2200    2.8620    1.8760 n         1 MOL     -0.574575
    103 C34        -1.4700    2.2610    1.7140 c3        1 MOL      0.080715
    104 C35        -2.4120    3.2450    0.9510 c         1 MOL      0.647221
    105 O15        -2.6940    4.2690    1.5670 o         1 MOL     -0.542145
    106 C36        -2.0090    1.8430    3.1190 c3        1 MOL     -0.079448
    107 C37        -1.2350    0.6270    3.6780 c3        1 MOL     -0.008893
    108 C38        -3.5330    1.4360    3.1040 c3        1 MOL     -0.109503
    109 C39        -1.3540    0.2270    5.1680 c3        1 MOL     -0.183720
    110 H46        -0.2250    3.7070    2.4320 hn        1 MOL      0.330386
    111 H47        -1.4060    1.3590    1.0950 h1        1 MOL      0.115216
    112 H48        -1.9120    2.6730    3.8210 hc        1 MOL      0.058573
    113 H49        -0.1620    0.7270    3.5170 hc        1 MOL      0.074649
    114 H50        -1.5160   -0.2080    3.0320 hc        1 MOL      0.074649
    115 H51        -4.1560    2.2680    2.7790 hc        1 MOL      0.029345
    116 H52        -3.7010    0.5570    2.4780 hc        1 MOL      0.029345
    117 H53        -3.8390    1.1530    4.1080 hc        1 MOL      0.029345
    118 H54        -0.5390   -0.4490    5.4190 hc        1 MOL      0.047542
    119 H55        -1.1380    1.1530    5.7100 hc        1 MOL      0.047542
    120 H56        -2.3300   -0.0920    5.5290 hc        1 MOL      0.047542
    121 N11        -2.9780    2.8460   -0.2300 n         1 MOL     -0.626264
    122 C40        -4.0030    3.6160   -1.0470 c3        1 MOL      0.231934
    123 C41        -5.3490    3.3510   -0.5320 c         1 MOL      0.272969
    124 O16        -5.5970    2.3310    0.1050 o         1 MOL     -0.195162
    125 C42        -3.8620    3.1250   -2.4930 c3        1 MOL     -0.230363
    126 O17        -4.6370    1.9130   -2.6960 oh        1 MOL     -0.440611
    127 H57        -2.6790    1.9410   -0.5650 hn        1 MOL      0.325027
    128 H58        -3.8480    4.6930   -1.0000 h1        1 MOL      0.060065
    129 H59        -2.8110    2.8790   -2.6010 h1        1 MOL      0.129891
    130 H60        -4.1280    3.9100   -3.2050 h1        1 MOL      0.129891
    131 H61        -4.0800    1.5380   -3.3750 ho        1 MOL      0.397091
    132 N12        -6.3490    4.1490   -0.9100 n         1 MOL     -0.424865
    133 C43        -7.7980    3.8310   -0.7980 c3        1 MOL      0.152606
    134 C44        -8.1610    2.4350   -1.1310 c         1 MOL      0.468942
    135 O18        -9.0060    1.8760   -0.3900 o         1 MOL     -0.540973
    136 C45        -8.6490    4.7570   -1.7110 c3        1 MOL     -0.119623
    137 H62        -6.1040    4.9840   -1.4230 hn        1 MOL      0.290949
    138 H63        -8.1100    4.0050    0.2240 h1        1 MOL      0.065334
    139 H64        -9.6410    4.9680   -1.3070 hc        1 MOL      0.043186
    140 H65        -8.1160    5.6850   -1.9130 hc        1 MOL      0.043186
    141 H66        -8.8140    4.2420   -2.6560 hc        1 MOL      0.043186
    142 N13        -7.4800    1.7710   -2.0610 n         1 MOL     -0.309622
    143 C46        -7.7800    0.3270   -2.3790 c3        1 MOL      0.035467
    144 C47        -7.1150   -0.7320   -1.3970 c         1 MOL      0.352591
    145 O19        -7.7010   -1.8110   -1.1500 o         1 MOL     -0.470666
    146 C48        -7.2230    0.0450   -3.7610 c3        1 MOL     -0.134394
    147 H67        -6.8180    2.2080   -2.6920 hn        1 MOL      0.221888
    148 H68        -8.8550    0.1980   -2.4040 h1        1 MOL      0.111448
    149 H69        -7.6350    0.7320   -4.4910 hc        1 MOL      0.042931
    150 H70        -6.1410    0.1370   -3.8580 hc        1 MOL      0.042931
    151 H71        -7.5520   -0.9440   -4.0700 hc        1 MOL      0.042931
    152 N14        -5.8340   -0.3870   -0.9560 n         1 MOL     -0.113297
    153 C49        -5.2670   -1.2000    0.0870 c3        1 MOL     -0.446772
    154 C50        -6.0800   -1.0630    1.3960 c         1 MOL      0.578776
    155 O20        -6.2840   -2.0430    2.0150 o         1 MOL     -0.559845
    156 C51        -3.8090   -0.7740    0.2530 c3        1 MOL      0.036616
    157 C52        -2.9600   -1.2540   -0.9490 c3        1 MOL      0.022031
    158 C53        -1.5250   -0.8800   -0.6740 c         1 MOL      0.717114
    159 O21        -1.0470    0.2010   -1.0700 o         1 MOL     -0.773437
    160 O22        -0.7070   -1.6180   -0.0900 o         1 MOL     -0.773437
    161 H72        -5.5220    0.5430   -1.1990 hn        1 MOL      0.078676
    162 H73        -5.2890   -2.2520   -0.2170 h1        1 MOL      0.205805
    163 H74        -3.4000   -1.1960    1.1670 hc        1 MOL      0.073689
    164 H75        -3.7020    0.3080    0.3730 hc        1 MOL      0.073689
    165 H76        -3.2810   -0.7850   -1.8780 hc        1 MOL     -0.017571
    166 H77        -2.9320   -2.3460   -0.9770 hc        1 MOL     -0.017571
    167 N15        -6.5560    0.1590    1.7270 n         1 MOL     -0.035447
    168 C54        -7.4050    0.4700    2.9330 c3        1 MOL     -0.288100
    169 H78        -8.4590    0.4140    2.6600 h1        1 MOL      0.112917
    170 H79        -7.1960   -0.2520    3.7230 h1        1 MOL      0.112917
    171 H80        -7.1770    1.4750    3.2890 h1        1 MOL      0.112917
    172 H81        -6.2150    0.9720    1.2210 hn        1 MOL      0.029072
    173 Ca1         1.3670   -0.4540   -1.2020 Ca        1 MOL      1.816797
    174 O23         0.2170   -2.1590   -3.1570 oh        1 MOL     -0.860110
    175 H82        -0.2200   -1.5870   -3.7830 ho        1 MOL      0.400812
    176 H83         0.2720   -3.0030   -3.6080 ho        1 MOL      0.400812
    177 O24         1.9010    0.1160   -4.0650 oh        1 MOL     -0.860110
    178 H84         2.4110   -0.6730   -4.2550 ho        1 MOL      0.400812
    179 H85         1.7240    0.5020   -4.9260 ho        1 MOL      0.400812
    180 O25         0.6640    2.0230   -2.0490 oh        1 MOL     -0.860110
    181 H86         0.5330    2.9590   -2.1250 ho        1 MOL      0.400812
    182 H87        -0.1770    1.6810   -1.7580 ho        1 MOL      0.400812
@<TRIPOS>BOND
     1    1    2 1   
     2    1    4 1   
     3    1    5 1   
     4    1    6 1   
     5    2    3 2   
     6    2    7 1   
     7    7    8 1   
     8    7   15 1   
     9    8    9 1   
    10    8   11 1   
    11    8   16 1   
    12    9   10 2   
    13    9   19 1   
    14   11   12 1   
    15   11   17 1   
    16   11   18 1   
    17   12   13 1   
    18   12   14 1   
    19   19   20 1   
    20   19   28 1   
    21   20   21 1   
    22   20   23 1   
    23   20   29 1   
    24   21   22 2   
    25   21   41 1   
    26   23   24 1   
    27   23   30 1   
    28   23   31 1   
    29   24   25 1   
    30   24   32 1   
    31   24   33 1   
    32   25   26 1   
    33   25   34 1   
    34   25   35 1   
    35   26   27 1   
    36   26   36 1   
    37   26   37 1   
    38   27   38 1   
    39   27   39 1   
    40   27   40 1   
    41   41   42 1   
    42   41   49 1   
    43   42   43 1   
    44   42   45 1   
    45   42   50 1   
    46   43   44 2   
    47   43   53 1   
    48   45   46 1   
    49   45   51 1   
    50   45   52 1   
    51   46   47 1   
    52   46   48 1   
    53   53   54 1   
    54   53   57 1   
    55   54   55 1   
    56   54   58 1   
    57   54   59 1   
    58   55   56 2   
    59   55   60 1   
    60   60   61 1   
    61   60   68 1   
    62   61   62 1   
    63   61   64 1   
    64   61   69 1   
    65   62   63 2   
    66   62   74 1   
    67   64   65 1   
    68   64   70 1   
    69   64   71 1   
    70   65   66 1   
    71   65   67 2   
    72   66   72 1   
    73   66   73 1   
    74   74   75 1   
    75   74   78 1   
    76   75   76 1   
    77   75   79 1   
    78   75   80 1   
    79   76   77 2   
    80   76   81 1   
    81   81   82 1   
    82   81   93 1   
    83   82   83 1   
    84   82   85 1   
    85   82   94 1   
    86   83   84 2   
    87   83  102 1   
    88   85   86 1   
    89   85   95 1   
    90   85   96 1   
    91   86   87 ar  
    92   86   88 ar  
    93   87   89 ar  
    94   87   97 1   
    95   88   90 ar  
    96   88   98 1   
    97   89   91 ar  
    98   89   99 1   
    99   90   91 ar  
   100   90  100 1   
   101   91   92 1   
   102   92  101 1   
   103  102  103 1   
   104  102  110 1   
   105  103  104 1   
   106  103  106 1   
   107  103  111 1   
   108  104  105 2   
   109  104  121 1   
   110  106  107 1   
   111  106  108 1   
   112  106  112 1   
   113  107  109 1   
   114  107  113 1   
   115  107  114 1   
   116  108  115 1   
   117  108  116 1   
   118  108  117 1   
   119  109  118 1   
   120  109  119 1   
   121  109  120 1   
   122  121  122 1   
   123  121  127 1   
   124  122  123 1   
   125  122  125 1   
   126  122  128 1   
   127  123  124 2   
   128  123  132 1   
   129  125  126 1   
   130  125  129 1   
   131  125  130 1   
   132  126  131 1   
   133  132  133 1   
   134  132  137 1   
   135  133  134 1   
   136  133  136 1   
   137  133  138 1   
   138  134  135 2   
   139  134  142 1   
   140  136  139 1   
   141  136  140 1   
   142  136  141 1   
   143  142  143 1   
   144  142  147 1   
   145  143  144 1   
   146  143  146 1   
   147  143  148 1   
   148  144  145 2   
   149  144  152 1   
   150  146  149 1   
   151  146  150 1   
   152  146  151 1   
   153  152  153 1   
   154  152  161 1   
   155  153  154 1   
   156  153  156 1   
   157  153  162 1   
   158  154  155 2   
   159  154  167 1   
   160  156  157 1   
   161  156  163 1   
   162  156  164 1   
   163  157  158 1   
   164  157  165 1   
   165  157  166 1   
   166  158  159 1   
   167  158  160 1   
   168  167  168 1   
   169  167  172 1   
   170  168  169 1   
   171  168  170 1   
   172  168  171 1   
   173  174  175 1   
   174  174  176 1   
   175  177  178 1   
   176  177  179 1   
   177  180  181 1   
   178  180  182 1   
@<TRIPOS>SUBSTRUCTURE
     1 MOL         1 TEMP              0 ****  ****    0 ROOT
