@<TRIPOS>MOLECULE
MOL
  189   185     1     0     0
SMALL
resp


@<TRIPOS>ATOM
      1 C1         -0.0280    2.4420    5.7270 c3        1 MOL     -0.394397
      2 C2         -0.3280    2.2350    4.2170 c         1 MOL      0.603056
      3 O1          0.4870    2.5500    3.3640 o         1 MOL     -0.489525
      4 H1          0.3090    1.5010    6.1630 hc        1 MOL      0.104880
      5 H2          0.7520    3.1950    5.8430 hc        1 MOL      0.104880
      6 H3         -0.9330    2.7750    6.2360 hc        1 MOL      0.104880
      7 N1         -1.4580    1.6180    3.8870 n         1 MOL     -0.487525
      8 C3         -1.8630    1.5010    2.4840 c3        1 MOL      0.074332
      9 C4         -2.0480    2.8920    1.9310 c         1 MOL      0.200908
     10 O2         -2.8380    3.7350    2.4930 o         1 MOL     -0.520610
     11 C5         -3.2330    0.7800    2.4660 c3        1 MOL     -0.219881
     12 C6         -3.8220    0.5660    1.0820 c         1 MOL      0.917814
     13 O3         -5.0210    0.3340    1.0320 o         1 MOL     -0.738120
     14 O4         -3.0430    0.6850    0.1430 o         1 MOL     -0.738120
     15 H4         -2.2100    1.4510    4.5390 hn        1 MOL      0.322784
     16 H5         -1.1760    0.8860    1.9110 h1        1 MOL      0.009888
     17 H6         -3.9770    1.3010    3.0680 hc        1 MOL      0.035774
     18 H7         -3.0480   -0.1810    2.9450 hc        1 MOL      0.035774
     19 N2         -1.2970    3.3300    0.8890 n         1 MOL      0.105264
     20 C7         -1.3040    4.7160    0.3850 c3        1 MOL     -0.148429
     21 C8         -2.4420    4.9870   -0.5220 c         1 MOL      0.417360
     22 O5         -2.9690    6.0770   -0.5070 o         1 MOL     -0.560632
     23 C9          0.0290    5.0600   -0.3740 c3        1 MOL      0.000623
     24 C10         1.2570    5.1450    0.5240 c3        1 MOL     -0.024413
     25 C11         1.3020    6.1360    1.7350 c3        1 MOL     -0.144306
     26 C12         0.6730    5.5460    3.0140 c3        1 MOL      0.368073
     27 N3          0.2860    6.5810    4.0190 n4        1 MOL     -0.578639
     28 H8         -0.7260    2.6470    0.4210 hn        1 MOL      0.320669
     29 H9         -1.4180    5.2760    1.3190 h1        1 MOL      0.062023
     30 H10        -0.1040    6.0150   -0.8920 hc        1 MOL      0.021889
     31 H11         0.1020    4.4070   -1.2410 hc        1 MOL      0.021889
     32 H12         2.0800    5.3300   -0.1650 hc        1 MOL      0.040696
     33 H13         1.3000    4.1160    0.8950 hc        1 MOL      0.040696
     34 H14         0.7780    7.0390    1.4340 hc        1 MOL      0.044768
     35 H15         2.3260    6.4180    1.9830 hc        1 MOL      0.044768
     36 H16         1.2880    4.7190    3.3850 hx        1 MOL     -0.019651
     37 H17        -0.2630    5.1280    2.6620 hx        1 MOL     -0.019651
     38 H18         1.0440    7.1160    4.4100 hn        1 MOL      0.363995
     39 H19        -0.5050    7.0980    3.6370 hn        1 MOL      0.363995
     40 H20        -0.2670    6.1470    4.7470 hn        1 MOL      0.363995
     41 N4         -2.8370    4.0690   -1.4020 n         1 MOL     -0.142411
     42 C13        -3.8020    4.2110   -2.5060 c3        1 MOL      0.055189
     43 C14        -5.2270    3.6840   -2.1690 c         1 MOL      0.415949
     44 O6         -6.1780    3.8290   -2.9630 o         1 MOL     -0.544331
     45 C15        -3.2370    3.6840   -3.7560 c3        1 MOL     -0.064904
     46 C16        -2.6150    2.3050   -3.6280 c         1 MOL      0.728853
     47 O7         -3.1110    1.4020   -2.9370 o         1 MOL     -0.687606
     48 O8         -1.7450    1.9000   -4.4680 o         1 MOL     -0.687606
     49 H21        -2.3700    3.1830   -1.2730 hn        1 MOL      0.044194
     50 H22        -4.0180    5.2560   -2.7200 h1        1 MOL      0.073330
     51 H23        -2.4350    4.3390   -4.0980 hc        1 MOL      0.024285
     52 H24        -3.9670    3.7890   -4.5630 hc        1 MOL      0.024285
     53 N5         -5.3530    2.9820   -1.0620 n         1 MOL     -0.299850
     54 C17        -6.6560    2.4960   -0.4960 c3        1 MOL     -0.077813
     55 C18        -7.2430    1.1350   -0.8530 c         1 MOL      0.474995
     56 O9         -8.4540    0.9100   -0.6130 o         1 MOL     -0.580604
     57 H25        -4.5390    2.7010   -0.5340 hn        1 MOL      0.227699
     58 H26        -7.3780    3.2770   -0.7170 h1        1 MOL      0.096167
     59 H27        -6.6800    2.6450    0.5770 h1        1 MOL      0.096167
     60 N6         -6.5190    0.2790   -1.6080 n         1 MOL     -0.186875
     61 C19        -7.0350   -0.9610   -2.2270 c3        1 MOL     -0.049313
     62 C20        -7.2930   -2.0730   -1.1740 c         1 MOL      0.383387
     63 O10        -7.9250   -3.0760   -1.5610 o         1 MOL     -0.548644
     64 C21        -6.1270   -1.4850   -3.3080 c3        1 MOL     -0.283466
     65 C22        -4.6870   -1.6410   -2.9010 c         1 MOL      0.884097
     66 O11        -4.3660   -1.5460   -1.6930 o         1 MOL     -0.719918
     67 O12        -3.9440   -1.9850   -3.7700 o         1 MOL     -0.719918
     68 H28        -5.5050    0.3490   -1.6150 hn        1 MOL      0.150855
     69 H29        -8.0590   -0.7490   -2.5200 h1        1 MOL      0.118920
     70 H30        -6.2250   -0.9040   -4.2290 hc        1 MOL      0.085848
     71 H31        -6.5440   -2.4680   -3.5420 hc        1 MOL      0.085848
     72 N7         -6.7170   -2.0210    0.0440 n         1 MOL     -0.085174
     73 C23        -6.8970   -3.0430    1.0230 c3        1 MOL     -0.183257
     74 C24        -5.7160   -3.9090    1.2320 c         1 MOL      0.616341
     75 O13        -5.8840   -4.9710    1.7860 o         1 MOL     -0.578517
     76 H32        -6.2810   -1.1360    0.2640 hn        1 MOL      0.232444
     77 H33        -7.7750   -3.6770    0.8730 h1        1 MOL      0.081386
     78 H34        -7.0130   -2.4540    1.9270 h1        1 MOL      0.081386
     79 N8         -4.5460   -3.5350    0.6990 n         1 MOL     -0.225475
     80 C25        -3.2940   -4.2590    1.0530 c3        1 MOL     -0.313724
     81 C26        -2.0520   -3.3090    1.2110 c         1 MOL      0.850982
     82 O14        -2.0210   -2.2990    0.4910 o         1 MOL     -0.692243
     83 C27        -2.9420   -5.3630    0.0950 c3        1 MOL      0.343306
     84 C28        -3.8340   -6.6060    0.2950 c3        1 MOL     -0.443302
     85 O15        -3.1950   -4.8680   -1.2130 oh        1 MOL     -0.613771
     86 H35        -4.4190   -2.6940    0.1550 hn        1 MOL      0.149257
     87 H36        -3.4960   -4.7830    1.9840 h1        1 MOL      0.097939
     88 H37        -1.8950   -5.6320    0.1850 h1        1 MOL      0.076955
     89 H38        -4.1340   -4.7260   -1.3570 ho        1 MOL      0.441784
     90 H39        -4.8350   -6.4530   -0.1250 hc        1 MOL      0.124031
     91 H40        -3.2830   -7.3910   -0.2210 hc        1 MOL      0.124031
     92 H41        -3.8240   -6.9590    1.3200 hc        1 MOL      0.124031
     93 N9         -1.1470   -3.6060    2.1750 n         1 MOL     -0.737583
     94 C29         0.0920   -2.8190    2.2180 c3        1 MOL      0.173143
     95 C30         1.2430   -3.5600    1.5390 c         1 MOL      0.369325
     96 O16         1.4000   -4.7960    1.6490 o         1 MOL     -0.536253
     97 C31         0.4260   -2.7430    3.7400 c3        1 MOL      0.145020
     98 C32        -0.6870   -2.0210    4.5360 c3        1 MOL      0.175088
     99 C33         1.7360   -1.9420    4.0110 c3        1 MOL     -0.379048
    100 C34        -0.6620   -2.1950    6.0790 c3        1 MOL     -0.332705
    101 H42        -1.3820   -4.3160    2.8430 hn        1 MOL      0.356521
    102 H43        -0.0600   -1.7920    1.8910 h1        1 MOL      0.117436
    103 H44         0.4990   -3.7950    4.0300 hc        1 MOL      0.006764
    104 H45        -1.6580   -2.4230    4.2550 hc        1 MOL     -0.018328
    105 H46        -0.6120   -0.9560    4.3060 hc        1 MOL     -0.018328
    106 H47         1.9120   -1.1200    3.3170 hc        1 MOL      0.086363
    107 H48         1.8190   -1.5420    5.0200 hc        1 MOL      0.086363
    108 H49         2.5970   -2.5980    3.8690 hc        1 MOL      0.086363
    109 H50        -0.5700   -3.2300    6.3940 hc        1 MOL      0.075988
    110 H51         0.1540   -1.6090    6.4990 hc        1 MOL      0.075988
    111 H52        -1.5500   -1.6900    6.4450 hc        1 MOL      0.075988
    112 N10         1.9750   -2.7790    0.7560 n         1 MOL     -0.069280
    113 C35         3.1450   -3.0790    0.0050 c3        1 MOL     -0.033301
    114 C36         4.4400   -2.3640    0.5020 c         1 MOL      0.509446
    115 O17         4.3630   -1.4100    1.2670 o         1 MOL     -0.505478
    116 C37         2.8290   -2.9970   -1.4810 c3        1 MOL      0.468170
    117 C38         1.6600   -3.9380   -1.9710 c3        1 MOL     -0.401712
    118 O18         2.5310   -1.7110   -1.8290 oh        1 MOL     -0.630669
    119 H53         1.6750   -1.8200    0.7000 hn        1 MOL      0.030085
    120 H54         3.4060   -4.1230    0.1230 h1        1 MOL      0.039090
    121 H55         3.8310   -3.2290   -1.8360 h1        1 MOL     -0.074534
    122 H56         1.7260   -1.4610   -1.3770 ho        1 MOL      0.412495
    123 H57         0.7320   -3.7130   -1.4600 hc        1 MOL      0.097201
    124 H58         1.6290   -3.8510   -3.0660 hc        1 MOL      0.097201
    125 H59         1.9400   -4.9400   -1.6400 hc        1 MOL      0.097201
    126 N11         5.6240   -2.8700    0.1440 n         1 MOL     -0.333021
    127 C39         6.9280   -2.4320    0.6780 c3        1 MOL      0.002331
    128 C40         7.2840   -0.9420    0.3900 c         1 MOL      0.325862
    129 O19         7.7620   -0.2690    1.2570 o         1 MOL     -0.461260
    130 C41         7.9970   -3.4370    0.1820 c3        1 MOL      0.525708
    131 C42         9.1880   -3.5710    1.0300 c3        1 MOL     -0.403019
    132 O20         7.6240   -4.7810    0.1000 oh        1 MOL     -0.641855
    133 H60         5.5010   -3.6980   -0.4360 hn        1 MOL      0.214953
    134 H61         6.9580   -2.5760    1.7670 h1        1 MOL      0.113965
    135 H62         8.1730   -3.1720   -0.8600 h1        1 MOL     -0.089513
    136 H63         8.2380   -5.1760   -0.5190 ho        1 MOL      0.405513
    137 H64         9.5920   -2.5830    1.2670 hc        1 MOL      0.097206
    138 H65         9.0380   -4.1660    1.9400 hc        1 MOL      0.097206
    139 H66         9.9360   -4.0400    0.3790 hc        1 MOL      0.097206
    140 N12         6.8920   -0.4400   -0.7620 n         1 MOL     -0.306785
    141 C43         7.0940    0.9880   -1.1540 c3        1 MOL     -0.078161
    142 C44         5.9710    1.8480   -0.5460 c         1 MOL      0.354124
    143 O21         6.1180    3.0970   -0.5510 o         1 MOL     -0.528930
    144 C45         7.0760    1.0910   -2.6690 c3        1 MOL      0.010277
    145 C46         8.1840    0.3830   -3.4810 c3        1 MOL      0.116270
    146 C47         8.1330    0.8530   -4.9800 c3        1 MOL     -0.144813
    147 C48         9.2240    0.4230   -5.9560 c3        1 MOL      0.018237
    148 N13        10.5050    1.0630   -5.6960 n4        1 MOL     -0.390673
    149 H67         6.4540   -0.9890   -1.4840 hn        1 MOL      0.253037
    150 H68         8.0600    1.3670   -0.8080 h1        1 MOL      0.145365
    151 H69         7.2150    2.1300   -2.9570 hc        1 MOL      0.033158
    152 H70         6.0820    0.8440   -3.0400 hc        1 MOL      0.033158
    153 H71         8.0710   -0.6850   -3.3610 hc        1 MOL     -0.037990
    154 H72         9.0940    0.6580   -2.9580 hc        1 MOL     -0.037990
    155 H73         8.0890    1.9410   -5.0750 hc        1 MOL      0.081212
    156 H74         7.1400    0.4610   -5.2390 hc        1 MOL      0.081212
    157 H75         8.8800    0.4010   -6.9890 hx        1 MOL      0.100501
    158 H76         9.3020   -0.6600   -5.8610 hx        1 MOL      0.100501
    159 H77        10.9630    0.7050   -4.8760 hn        1 MOL      0.302359
    160 H78        11.1340    0.9080   -6.4680 hn        1 MOL      0.302359
    161 H79        10.4390    2.0660   -5.5980 hn        1 MOL      0.302359
    162 N14         4.9140    1.2750   -0.0090 n         1 MOL     -0.028992
    163 C49         3.9390    1.9890    0.7540 c3        1 MOL     -0.044442
    164 C50         4.3430    2.0830    2.2390 c         1 MOL      0.525124
    165 O22         4.0660    3.0970    2.8420 o         1 MOL     -0.545853
    166 C51         2.6110    1.2400    0.6510 c3        1 MOL     -0.152086
    167 C52         1.8730    1.3810   -0.6080 c3        1 MOL      0.098742
    168 C53         0.4980    0.6740   -0.6430 c         1 MOL      0.746327
    169 O23        -0.3890    1.3450   -1.1720 o         1 MOL     -0.704351
    170 O24         0.3530   -0.5550   -0.5040 o         1 MOL     -0.704351
    171 H80         4.9410    0.2770    0.1240 hn        1 MOL      0.048819
    172 H81         3.8820    2.9960    0.3210 h1        1 MOL      0.083998
    173 H82         1.8970    1.6050    1.3790 hc        1 MOL      0.015210
    174 H83         2.7550    0.1710    0.8620 hc        1 MOL      0.015210
    175 H84         2.4810    0.9590   -1.4030 hc        1 MOL     -0.044187
    176 H85         1.7300    2.4430   -0.7950 hc        1 MOL     -0.044187
    177 N15         5.0400    1.0780    2.8200 n         1 MOL     -0.244750
    178 C54         5.6640    1.3270    4.1440 c3        1 MOL     -0.250926
    179 H86         6.0290    0.3860    4.5570 h1        1 MOL      0.108845
    180 H87         6.4970    2.0200    4.0290 h1        1 MOL      0.108845
    181 H88         4.9240    1.7560    4.8200 h1        1 MOL      0.108845
    182 H89         5.2870    0.2650    2.2740 hn        1 MOL      0.254995
    183 Ca1        -1.9970   -0.6420   -1.7100 Ca        1 MOL      1.688782
    184 O25        -0.3760   -0.1640   -3.7420 oh        1 MOL     -0.895834
    185 H90        -0.0000   -0.6760   -4.4620 ho        1 MOL      0.412742
    186 H91        -0.8600    0.5330   -4.1670 ho        1 MOL      0.412742
    187 O26        -1.6770   -3.2210   -2.3420 oh        1 MOL     -0.895834
    188 H92        -2.2140   -3.8550   -1.8800 ho        1 MOL      0.412742
    189 H93        -1.2330   -3.7390   -3.0170 ho        1 MOL      0.412742
@<TRIPOS>BOND
     1    1    2 1   
     2    1    4 1   
     3    1    5 1   
     4    1    6 1   
     5    2    3 2   
     6    2    7 1   
     7    7    8 1   
     8    7   15 1   
     9    8    9 1   
    10    8   11 1   
    11    8   16 1   
    12    9   10 2   
    13    9   19 1   
    14   11   12 1   
    15   11   17 1   
    16   11   18 1   
    17   12   13 1   
    18   12   14 1   
    19   19   20 1   
    20   19   28 1   
    21   20   21 1   
    22   20   23 1   
    23   20   29 1   
    24   21   22 2   
    25   21   41 1   
    26   23   24 1   
    27   23   30 1   
    28   23   31 1   
    29   24   25 1   
    30   24   32 1   
    31   24   33 1   
    32   25   26 1   
    33   25   34 1   
    34   25   35 1   
    35   26   27 1   
    36   26   36 1   
    37   26   37 1   
    38   27   38 1   
    39   27   39 1   
    40   27   40 1   
    41   41   42 1   
    42   41   49 1   
    43   42   43 1   
    44   42   45 1   
    45   42   50 1   
    46   43   44 2   
    47   43   53 1   
    48   45   46 1   
    49   45   51 1   
    50   45   52 1   
    51   46   47 1   
    52   46   48 1   
    53   53   54 1   
    54   53   57 1   
    55   54   55 1   
    56   54   58 1   
    57   54   59 1   
    58   55   56 2   
    59   55   60 1   
    60   60   61 1   
    61   60   68 1   
    62   61   62 1   
    63   61   64 1   
    64   61   69 1   
    65   62   63 2   
    66   62   72 1   
    67   64   65 1   
    68   64   70 1   
    69   64   71 1   
    70   65   66 1   
    71   65   67 1   
    72   72   73 1   
    73   72   76 1   
    74   73   74 1   
    75   73   77 1   
    76   73   78 1   
    77   74   75 2   
    78   74   79 1   
    79   79   80 1   
    80   79   86 1   
    81   80   81 1   
    82   80   83 1   
    83   80   87 1   
    84   81   82 2   
    85   81   93 1   
    86   83   84 1   
    87   83   85 1   
    88   83   88 1   
    89   84   90 1   
    90   84   91 1   
    91   84   92 1   
    92   85   89 1   
    93   93   94 1   
    94   93  101 1   
    95   94   95 1   
    96   94   97 1   
    97   94  102 1   
    98   95   96 2   
    99   95  112 1   
   100   97   98 1   
   101   97   99 1   
   102   97  103 1   
   103   98  100 1   
   104   98  104 1   
   105   98  105 1   
   106   99  106 1   
   107   99  107 1   
   108   99  108 1   
   109  100  109 1   
   110  100  110 1   
   111  100  111 1   
   112  112  113 1   
   113  112  119 1   
   114  113  114 1   
   115  113  116 1   
   116  113  120 1   
   117  114  115 2   
   118  114  126 1   
   119  116  117 1   
   120  116  118 1   
   121  116  121 1   
   122  117  123 1   
   123  117  124 1   
   124  117  125 1   
   125  118  122 1   
   126  126  127 1   
   127  126  133 1   
   128  127  128 1   
   129  127  130 1   
   130  127  134 1   
   131  128  129 2   
   132  128  140 1   
   133  130  131 1   
   134  130  132 1   
   135  130  135 1   
   136  131  137 1   
   137  131  138 1   
   138  131  139 1   
   139  132  136 1   
   140  140  141 1   
   141  140  149 1   
   142  141  142 1   
   143  141  144 1   
   144  141  150 1   
   145  142  143 2   
   146  142  162 1   
   147  144  145 1   
   148  144  151 1   
   149  144  152 1   
   150  145  146 1   
   151  145  153 1   
   152  145  154 1   
   153  146  147 1   
   154  146  155 1   
   155  146  156 1   
   156  147  148 1   
   157  147  157 1   
   158  147  158 1   
   159  148  159 1   
   160  148  160 1   
   161  148  161 1   
   162  162  163 1   
   163  162  171 1   
   164  163  164 1   
   165  163  166 1   
   166  163  172 1   
   167  164  165 2   
   168  164  177 1   
   169  166  167 1   
   170  166  173 1   
   171  166  174 1   
   172  167  168 1   
   173  167  175 1   
   174  167  176 1   
   175  168  169 1   
   176  168  170 1   
   177  177  178 1   
   178  177  182 1   
   179  178  179 1   
   180  178  180 1   
   181  178  181 1   
   182  184  185 1   
   183  184  186 1   
   184  187  188 1   
   185  187  189 1   
@<TRIPOS>SUBSTRUCTURE
     1 MOL         1 TEMP              0 ****  ****    0 ROOT
