@<TRIPOS>MOLECULE
MOL
  182   178     1     0     0
SMALL
resp


@<TRIPOS>ATOM
      1 C1          2.5190    1.6600    5.7970 c3        1 MOL     -0.275373
      2 C2          1.9440    1.7210    4.2940 c         1 MOL      0.634236
      3 O1          2.6820    1.7100    3.3030 o         1 MOL     -0.584331
      4 H1          1.7050    1.8200    6.5040 hc        1 MOL      0.078372
      5 H2          2.9670    0.6820    5.9750 hc        1 MOL      0.078372
      6 H3          3.2730    2.4350    5.9300 hc        1 MOL      0.078372
      7 N1          0.6490    1.5720    4.1280 n         1 MOL     -0.426162
      8 C3         -0.1300    1.6550    2.8640 c3        1 MOL      0.022531
      9 C4         -0.1650    3.1130    2.4400 c         1 MOL      0.353133
     10 O2         -0.8520    3.9900    2.9690 o         1 MOL     -0.510180
     11 C5         -1.5390    1.0310    2.9520 c3        1 MOL     -0.217064
     12 C6         -2.4390    1.2530    1.7970 c         1 MOL      0.781759
     13 O3         -3.6530    0.9920    1.8440 o         1 MOL     -0.738199
     14 O4         -1.9800    1.6880    0.7410 o         1 MOL     -0.738199
     15 H4          0.0460    1.5440    4.9410 hn        1 MOL      0.278196
     16 H5          0.5350    1.1870    2.1410 h1        1 MOL      0.141800
     17 H6         -2.0730    1.4550    3.8020 hc        1 MOL      0.075893
     18 H7         -1.3730   -0.0250    3.1710 hc        1 MOL      0.075893
     19 N2          0.7120    3.4330    1.4950 n         1 MOL      0.032727
     20 C7          1.1390    4.8450    1.1410 c3        1 MOL     -0.183484
     21 C8          0.2710    5.5280    0.1270 c         1 MOL      0.600575
     22 O5          0.3680    6.7720    0.0660 o         1 MOL     -0.596171
     23 C9          2.5670    4.5510    0.6380 c3        1 MOL     -0.151156
     24 C10         3.4230    5.8070    0.4110 c3        1 MOL     -0.065176
     25 C11         4.7600    5.5430   -0.2460 c3        1 MOL     -0.007110
     26 C12         5.5340    6.7510   -0.6130 c3        1 MOL     -0.078232
     27 N3          5.0150    7.5680   -1.7480 n4        1 MOL     -0.425129
     28 H8          1.0690    2.6420    0.9840 hn        1 MOL     -0.075018
     29 H9          1.1200    5.5060    2.0030 h1        1 MOL      0.133623
     30 H10         2.5040    4.0470   -0.3310 hc        1 MOL      0.151062
     31 H11         3.0250    3.8980    1.3780 hc        1 MOL      0.151062
     32 H12         3.6690    6.2490    1.3890 hc        1 MOL      0.045318
     33 H13         2.8470    6.4730   -0.2390 hc        1 MOL      0.045318
     34 H14         4.5700    5.0670   -1.2100 hc        1 MOL      0.055038
     35 H15         5.3840    4.9210    0.4040 hc        1 MOL      0.055038
     36 H16         6.5370    6.4980   -0.9670 hx        1 MOL      0.117412
     37 H17         5.7000    7.3840    0.2600 hx        1 MOL      0.117412
     38 H18         4.0770    7.9070   -1.5720 hn        1 MOL      0.349596
     39 H19         5.6510    8.3510   -1.7550 hn        1 MOL      0.349596
     40 H20         5.0830    7.0550   -2.6120 hn        1 MOL      0.349596
     41 N4         -0.5760    4.7880   -0.5600 n         1 MOL     -0.399926
     42 C13        -1.6780    5.3510   -1.3550 c3        1 MOL      0.099249
     43 C14        -3.0000    5.1600   -0.6460 c         1 MOL      0.434245
     44 O6         -4.0150    5.4980   -1.1930 o         1 MOL     -0.533267
     45 C15        -1.7160    4.9400   -2.9170 c3        1 MOL     -0.324645
     46 C16        -2.1980    3.5020   -3.1190 c         1 MOL      0.896689
     47 O7         -2.4620    3.0880   -4.3000 o         1 MOL     -0.758435
     48 O8         -2.2830    2.6710   -2.1810 o         1 MOL     -0.758435
     49 H21        -0.6380    3.7890   -0.4320 hn        1 MOL      0.269970
     50 H22        -1.4710    6.4240   -1.3880 h1        1 MOL      0.087760
     51 H23        -0.6920    4.9550   -3.3060 hc        1 MOL      0.081712
     52 H24        -2.3380    5.5760   -3.5380 hc        1 MOL      0.081712
     53 N5         -3.0180    4.4940    0.5380 n         1 MOL     -0.136198
     54 C17        -4.1630    4.2730    1.4260 c3        1 MOL     -0.082634
     55 C18        -5.3170    3.5300    0.7570 c         1 MOL      0.470021
     56 O9         -6.4380    3.6290    1.2410 o         1 MOL     -0.559600
     57 H25        -2.2070    3.9530    0.8200 hn        1 MOL     -0.005593
     58 H26        -4.5460    5.1360    1.9710 h1        1 MOL      0.100848
     59 H27        -3.8710    3.5220    2.1510 h1        1 MOL      0.100848
     60 N6         -5.0300    2.6800   -0.2480 n         1 MOL     -0.169077
     61 C19        -6.0340    2.0150   -1.0400 c3        1 MOL     -0.117283
     62 C20        -6.7810    0.8850   -0.1680 c         1 MOL      0.396795
     63 O10        -7.8370    0.4050   -0.4730 o         1 MOL     -0.554622
     64 C21        -5.4740    1.4350   -2.3560 c3        1 MOL     -0.091644
     65 C22        -4.8680    0.0290   -2.1290 c         1 MOL      0.236314
     66 N7         -5.5090   -1.0240   -2.6250 n         1 MOL     -0.683743
     67 O11        -3.8220   -0.1400   -1.5300 o         1 MOL     -0.286738
     68 H28        -4.1110    2.7800   -0.6470 hn        1 MOL      0.253017
     69 H29        -6.8580    2.7040   -1.2710 h1        1 MOL      0.097292
     70 H30        -4.7430    2.1390   -2.7320 hc        1 MOL      0.086770
     71 H31        -6.2250    1.3250   -3.1430 hc        1 MOL      0.086770
     72 H32        -6.4020   -0.8780   -3.0670 hn        1 MOL      0.371782
     73 H33        -5.1370   -1.9470   -2.4600 hn        1 MOL      0.371782
     74 N8         -6.0800    0.3300    0.8150 n         1 MOL      0.042211
     75 C23        -6.4200   -0.7030    1.7740 c3        1 MOL     -0.411518
     76 C24        -5.4300   -1.8950    1.7810 c         1 MOL      0.728046
     77 O12        -5.7480   -2.8830    2.3450 o         1 MOL     -0.589245
     78 H34        -5.2520    0.8660    1.0280 hn        1 MOL      0.198566
     79 H35        -7.4430   -1.0220    1.5750 h1        1 MOL      0.147947
     80 H36        -6.4390   -0.1890    2.7370 h1        1 MOL      0.147947
     81 N9         -4.2840   -1.8110    1.1690 n         1 MOL     -0.375634
     82 C25        -3.3280   -2.9310    1.0250 c3        1 MOL     -0.043488
     83 C26        -1.8820   -2.4300    1.0350 c         1 MOL      0.870248
     84 O13        -1.5690   -1.4100    0.4630 o         1 MOL     -0.799084
     85 C27        -3.4830   -3.6740   -0.3460 c3        1 MOL     -0.027295
     86 C28        -4.6390   -4.6420   -0.3240 ca        1 MOL      0.329496
     87 C29        -5.8120   -4.1390   -0.8250 ca        1 MOL     -0.388082
     88 C30        -4.5500   -6.0400   -0.1130 ca        1 MOL     -0.388082
     89 C31        -7.0110   -4.8830   -1.0250 ca        1 MOL     -0.139607
     90 C32        -5.7570   -6.7920   -0.1770 ca        1 MOL     -0.139607
     91 C33        -6.9630   -6.2130   -0.6860 ca        1 MOL      0.253481
     92 O14        -8.0620   -6.9850   -0.8140 oh        1 MOL     -0.444781
     93 H37        -4.0860   -0.9560    0.6850 hn        1 MOL      0.124963
     94 H38        -3.5740   -3.6280    1.8330 h1        1 MOL      0.063302
     95 H39        -2.6800   -4.3550   -0.6090 hc        1 MOL      0.000458
     96 H40        -3.5830   -2.9160   -1.1260 hc        1 MOL      0.000458
     97 H41        -5.8570   -3.0670   -0.8740 ha        1 MOL      0.173915
     98 H42        -3.6960   -6.4910    0.3690 ha        1 MOL      0.173915
     99 H43        -7.8930   -4.4030   -1.4240 ha        1 MOL      0.137651
    100 H44        -5.7820   -7.8070    0.1660 ha        1 MOL      0.137651
    101 H45        -7.7590   -7.8780   -0.6280 ho        1 MOL      0.325336
    102 N10        -1.0430   -3.1950    1.6680 n         1 MOL     -0.643363
    103 C34         0.4520   -3.1460    1.6660 c3        1 MOL      0.208673
    104 C35         0.8760   -4.0760    0.4970 c         1 MOL      0.315986
    105 O15         0.2980   -5.1780    0.2800 o         1 MOL     -0.528614
    106 C36         1.1200   -3.3120    3.0900 c3        1 MOL      0.175154
    107 C37         0.4110   -2.7150    4.3510 c3        1 MOL      0.246237
    108 C38         2.5240   -2.7480    2.8810 c3        1 MOL     -0.488092
    109 C39         0.8140   -3.3590    5.7090 c3        1 MOL     -0.205826
    110 H46        -1.4640   -3.8670    2.2870 hn        1 MOL      0.287692
    111 H47         0.7050   -2.1510    1.2820 h1        1 MOL      0.018576
    112 H48         1.1390   -4.4020    3.2020 hc        1 MOL     -0.013130
    113 H49        -0.6750   -2.7890    4.2500 hc        1 MOL     -0.068433
    114 H50         0.6580   -1.6530    4.4090 hc        1 MOL     -0.068433
    115 H51         3.1430   -2.7990    3.7750 hc        1 MOL      0.097478
    116 H52         3.0860   -3.1760    2.0420 hc        1 MOL      0.097478
    117 H53         2.4480   -1.6790    2.7410 hc        1 MOL      0.097478
    118 H54         0.4650   -2.7280    6.5250 hc        1 MOL      0.046171
    119 H55         0.5490   -4.4160    5.7870 hc        1 MOL      0.046171
    120 H56         1.8940   -3.4630    5.7100 hc        1 MOL      0.046171
    121 N11         1.7830   -3.5430   -0.2900 n         1 MOL     -0.048350
    122 C40         2.6410   -4.2720   -1.2680 c3        1 MOL     -0.089304
    123 C41         4.1750   -4.1550   -0.8890 c         1 MOL      0.388726
    124 O16         4.4950   -3.4960    0.1000 o         1 MOL     -0.408260
    125 C42         2.3020   -3.6960   -2.6740 c3        1 MOL     -0.058695
    126 O17         2.4830   -2.3090   -2.7480 oh        1 MOL     -0.528151
    127 H57         2.1830   -2.7080    0.0970 hn        1 MOL      0.278952
    128 H58         2.3910   -5.3290   -1.3180 h1        1 MOL      0.083766
    129 H59         1.2560   -3.9400   -2.8770 h1        1 MOL      0.085089
    130 H60         2.8610   -4.1320   -3.5090 h1        1 MOL      0.085089
    131 H61         1.8060   -1.9110   -2.2150 ho        1 MOL      0.357371
    132 N12         5.0860   -4.7970   -1.5780 n         1 MOL     -0.375041
    133 C43         6.5280   -4.8640   -1.0910 c3        1 MOL      0.118091
    134 C44         7.1980   -3.4810   -1.2700 c         1 MOL      0.466678
    135 O18         8.0230   -3.1130   -0.4600 o         1 MOL     -0.508447
    136 C45         7.3000   -5.9250   -1.9060 c3        1 MOL     -0.307917
    137 H62         4.8940   -5.2700   -2.4480 hn        1 MOL      0.277107
    138 H63         6.6020   -5.1340   -0.0360 h1        1 MOL      0.094554
    139 H64         7.3040   -5.6060   -2.9560 hc        1 MOL      0.097478
    140 H65         8.3210   -5.8990   -1.5300 hc        1 MOL      0.097478
    141 H66         6.8190   -6.9010   -1.7970 hc        1 MOL      0.097478
    142 N13         6.9380   -2.6880   -2.3010 n         1 MOL     -0.348342
    143 C46         7.3810   -1.3040   -2.4760 c3        1 MOL      0.091847
    144 C47         7.1250   -0.3450   -1.2870 c         1 MOL      0.302518
    145 O19         8.0060    0.3760   -0.8430 o         1 MOL     -0.486769
    146 C48         6.9570   -0.6280   -3.7390 c3        1 MOL     -0.355253
    147 H67         6.2530   -3.0540   -2.9370 hn        1 MOL      0.238463
    148 H68         8.4510   -1.4940   -2.5580 h1        1 MOL      0.095734
    149 H69         7.0710    0.4540   -3.7210 hc        1 MOL      0.106601
    150 H70         7.5260   -0.9760   -4.6000 hc        1 MOL      0.106601
    151 H71         5.8880   -0.7720   -3.8760 hc        1 MOL      0.106601
    152 N14         5.8730   -0.3070   -0.8170 n         1 MOL     -0.053850
    153 C49         5.3820    0.6310    0.2170 c3        1 MOL     -0.079773
    154 C50         5.9450    0.0910    1.4630 c         1 MOL      0.503330
    155 O20         6.2910    0.9050    2.3410 o         1 MOL     -0.559094
    156 C51         3.8510    0.5110    0.2640 c3        1 MOL      0.156962
    157 C52         3.1690    0.7470   -1.0990 c3        1 MOL     -0.057041
    158 C53         1.6900    0.4850   -0.9140 c         1 MOL      0.788284
    159 O21         1.1640   -0.6720   -1.2040 o         1 MOL     -0.743227
    160 O22         1.0450    1.4310   -0.4510 o         1 MOL     -0.743227
    161 H72         5.2130   -0.9290   -1.2780 hn        1 MOL      0.183040
    162 H73         5.7450    1.6420    0.0630 h1        1 MOL      0.067910
    163 H74         3.3880    1.2380    0.9270 hc        1 MOL     -0.032886
    164 H75         3.6120   -0.5270    0.4840 hc        1 MOL     -0.032886
    165 H76         3.6300    0.1170   -1.8700 hc        1 MOL     -0.065183
    166 H77         3.2980    1.7970   -1.3360 hc        1 MOL     -0.065183
    167 N15         6.0850   -1.2220    1.7340 n         1 MOL     -0.150383
    168 C54         6.9610   -1.6770    2.8540 c3        1 MOL     -0.226890
    169 H78         6.3770   -1.7300    3.7730 h1        1 MOL      0.104086
    170 H79         7.3650   -2.6620    2.6230 h1        1 MOL      0.104086
    171 H80         7.7800   -0.9700    2.9860 h1        1 MOL      0.104086
    172 H81         5.7730   -1.8690    1.0190 hn        1 MOL      0.117480
    173 Ca1        -1.2140    0.3790   -1.3260 Ca        1 MOL      1.803586
    174 O23        -2.5450    0.4950   -4.2490 oh        1 MOL     -0.852183
    175 H82        -3.1860    0.4590   -4.9640 ho        1 MOL      0.408734
    176 H83        -2.3510    1.4200   -4.1480 ho        1 MOL      0.408734
    177 O24        -1.2370   -1.8260   -2.8570 oh        1 MOL     -0.852183
    178 H84        -0.8870   -2.7130   -2.7690 ho        1 MOL      0.408734
    179 H85        -1.7430   -1.8350   -3.6680 ho        1 MOL      0.408734
    180 O25         0.3100    1.4620   -3.5050 oh        1 MOL     -0.852183
    181 H86         0.3190    2.3640   -3.8080 ho        1 MOL      0.408734
    182 H87         0.7610    0.9660   -4.1800 ho        1 MOL      0.408734
@<TRIPOS>BOND
     1    1    2 1   
     2    1    4 1   
     3    1    5 1   
     4    1    6 1   
     5    2    3 2   
     6    2    7 1   
     7    7    8 1   
     8    7   15 1   
     9    8    9 1   
    10    8   11 1   
    11    8   16 1   
    12    9   10 2   
    13    9   19 1   
    14   11   12 1   
    15   11   17 1   
    16   11   18 1   
    17   12   13 1   
    18   12   14 1   
    19   19   20 1   
    20   19   28 1   
    21   20   21 1   
    22   20   23 1   
    23   20   29 1   
    24   21   22 2   
    25   21   41 1   
    26   23   24 1   
    27   23   30 1   
    28   23   31 1   
    29   24   25 1   
    30   24   32 1   
    31   24   33 1   
    32   25   26 1   
    33   25   34 1   
    34   25   35 1   
    35   26   27 1   
    36   26   36 1   
    37   26   37 1   
    38   27   38 1   
    39   27   39 1   
    40   27   40 1   
    41   41   42 1   
    42   41   49 1   
    43   42   43 1   
    44   42   45 1   
    45   42   50 1   
    46   43   44 2   
    47   43   53 1   
    48   45   46 1   
    49   45   51 1   
    50   45   52 1   
    51   46   47 1   
    52   46   48 1   
    53   53   54 1   
    54   53   57 1   
    55   54   55 1   
    56   54   58 1   
    57   54   59 1   
    58   55   56 2   
    59   55   60 1   
    60   60   61 1   
    61   60   68 1   
    62   61   62 1   
    63   61   64 1   
    64   61   69 1   
    65   62   63 2   
    66   62   74 1   
    67   64   65 1   
    68   64   70 1   
    69   64   71 1   
    70   65   66 1   
    71   65   67 2   
    72   66   72 1   
    73   66   73 1   
    74   74   75 1   
    75   74   78 1   
    76   75   76 1   
    77   75   79 1   
    78   75   80 1   
    79   76   77 2   
    80   76   81 1   
    81   81   82 1   
    82   81   93 1   
    83   82   83 1   
    84   82   85 1   
    85   82   94 1   
    86   83   84 2   
    87   83  102 1   
    88   85   86 1   
    89   85   95 1   
    90   85   96 1   
    91   86   87 ar  
    92   86   88 ar  
    93   87   89 ar  
    94   87   97 1   
    95   88   90 ar  
    96   88   98 1   
    97   89   91 ar  
    98   89   99 1   
    99   90   91 ar  
   100   90  100 1   
   101   91   92 1   
   102   92  101 1   
   103  102  103 1   
   104  102  110 1   
   105  103  104 1   
   106  103  106 1   
   107  103  111 1   
   108  104  105 2   
   109  104  121 1   
   110  106  107 1   
   111  106  108 1   
   112  106  112 1   
   113  107  109 1   
   114  107  113 1   
   115  107  114 1   
   116  108  115 1   
   117  108  116 1   
   118  108  117 1   
   119  109  118 1   
   120  109  119 1   
   121  109  120 1   
   122  121  122 1   
   123  121  127 1   
   124  122  123 1   
   125  122  125 1   
   126  122  128 1   
   127  123  124 2   
   128  123  132 1   
   129  125  126 1   
   130  125  129 1   
   131  125  130 1   
   132  126  131 1   
   133  132  133 1   
   134  132  137 1   
   135  133  134 1   
   136  133  136 1   
   137  133  138 1   
   138  134  135 2   
   139  134  142 1   
   140  136  139 1   
   141  136  140 1   
   142  136  141 1   
   143  142  143 1   
   144  142  147 1   
   145  143  144 1   
   146  143  146 1   
   147  143  148 1   
   148  144  145 2   
   149  144  152 1   
   150  146  149 1   
   151  146  150 1   
   152  146  151 1   
   153  152  153 1   
   154  152  161 1   
   155  153  154 1   
   156  153  156 1   
   157  153  162 1   
   158  154  155 2   
   159  154  167 1   
   160  156  157 1   
   161  156  163 1   
   162  156  164 1   
   163  157  158 1   
   164  157  165 1   
   165  157  166 1   
   166  158  159 1   
   167  158  160 1   
   168  167  168 1   
   169  167  172 1   
   170  168  169 1   
   171  168  170 1   
   172  168  171 1   
   173  174  175 1   
   174  174  176 1   
   175  177  178 1   
   176  177  179 1   
   177  180  181 1   
   178  180  182 1   
@<TRIPOS>SUBSTRUCTURE
     1 MOL         1 TEMP              0 ****  ****    0 ROOT
