@<TRIPOS>MOLECULE
MOL
  179   176     1     0     0
SMALL
resp


@<TRIPOS>ATOM
      1 C1          2.4320    3.8980    4.0370 c3        1 MOL     -0.025105
      2 C2          1.6730    3.4950    2.8320 c         1 MOL      0.651290
      3 O1          2.1890    3.5490    1.7130 o         1 MOL     -0.597731
      4 H1          3.4670    3.5680    3.9420 hc        1 MOL     -0.003736
      5 H2          2.4060    4.9830    4.1380 hc        1 MOL     -0.003736
      6 H3          1.9850    3.4400    4.9190 hc        1 MOL     -0.003736
      7 N1          0.3830    3.2160    2.9830 n         1 MOL     -0.667548
      8 C3         -0.5230    2.8930    1.9190 c3        1 MOL      0.292895
      9 C4         -1.2040    4.1310    1.2960 c         1 MOL      0.531361
     10 O2         -2.3800    4.3860    1.4280 o         1 MOL     -0.468302
     11 C5         -1.5940    1.9050    2.4530 c3        1 MOL     -0.252464
     12 C6         -2.4700    1.3860    1.3570 c         1 MOL      0.664401
     13 O3         -2.0670    1.3580    0.1760 o         1 MOL     -0.676948
     14 O4         -3.7290    1.1100    1.6310 o         1 MOL     -0.676948
     15 H4          0.1200    3.1400    3.9500 hn        1 MOL      0.339765
     16 H5         -0.0570    2.4770    1.0270 h1        1 MOL      0.093981
     17 H6         -2.1870    2.4020    3.2240 hc        1 MOL      0.049159
     18 H7         -1.0260    1.0560    2.8240 hc        1 MOL      0.049159
     19 N2         -0.3220    4.9370    0.6690 n         1 MOL     -0.529131
     20 C7         -0.7050    6.2500    0.0780 c3        1 MOL      0.050287
     21 C8         -1.3650    6.2260   -1.2990 c         1 MOL      0.446382
     22 O5         -1.8300    7.2290   -1.7910 o         1 MOL     -0.542534
     23 C9          0.5250    7.2450    0.0120 c3        1 MOL     -0.267299
     24 C10         1.4140    7.3260    1.2900 c3        1 MOL      0.159609
     25 C11         2.5200    8.3910    1.1610 c3        1 MOL     -0.126758
     26 C12         3.0950    8.6060    2.5420 c3        1 MOL      0.083080
     27 N3          4.0490    9.6800    2.5130 n4        1 MOL     -0.475289
     28 H8          0.5850    4.6180    0.3860 hn        1 MOL      0.366243
     29 H9         -1.5060    6.6470    0.6890 h1        1 MOL      0.109162
     30 H10         0.2200    8.2750   -0.2280 hc        1 MOL      0.090454
     31 H11         1.2360    6.9030   -0.7460 hc        1 MOL      0.090454
     32 H12         1.9350    6.3680    1.3430 hc        1 MOL     -0.013394
     33 H13         0.8310    7.4110    2.2060 hc        1 MOL     -0.013394
     34 H14         2.0550    9.2830    0.7360 hc        1 MOL      0.064684
     35 H15         3.2810    8.0000    0.4890 hc        1 MOL      0.064684
     36 H16         3.6530    7.7600    2.9350 hx        1 MOL      0.084302
     37 H17         2.2580    8.8710    3.1980 hx        1 MOL      0.084302
     38 H18         4.7330    9.4480    1.8120 hn        1 MOL      0.358549
     39 H19         3.5260   10.5170    2.3010 hn        1 MOL      0.358549
     40 H20         4.4970    9.8380    3.4070 hn        1 MOL      0.358549
     41 N4         -1.5700    5.0370   -1.8450 n         1 MOL     -0.242016
     42 C13        -2.5360    4.6130   -2.9120 c3        1 MOL      0.062271
     43 C14        -3.8880    4.1790   -2.3160 c         1 MOL      0.367714
     44 O6         -4.8140    3.9810   -3.0850 o         1 MOL     -0.517796
     45 C15        -1.9850    3.6370   -3.9660 c3        1 MOL     -0.225066
     46 C16        -1.6870    2.2560   -3.3710 c         1 MOL      0.824774
     47 O7         -2.5840    1.3960   -3.2440 o         1 MOL     -0.779513
     48 O8         -0.5290    1.9040   -2.9970 o         1 MOL     -0.779513
     49 H21        -1.1930    4.2320   -1.3700 hn        1 MOL      0.127136
     50 H22        -2.7800    5.5090   -3.4940 h1        1 MOL      0.101488
     51 H23        -1.0270    4.0310   -4.3250 hc        1 MOL      0.060842
     52 H24        -2.6100    3.5240   -4.8440 hc        1 MOL      0.060842
     53 N5         -3.9350    3.9810   -1.0080 n         1 MOL     -0.068129
     54 C17        -5.2210    3.7860   -0.3490 c3        1 MOL     -0.033265
     55 C18        -5.9810    2.5430   -0.7450 c         1 MOL      0.461896
     56 O9         -7.2080    2.6690   -0.5710 o         1 MOL     -0.546914
     57 H25        -3.1220    4.0770   -0.4160 hn        1 MOL      0.056708
     58 H26        -5.8620    4.6590   -0.5120 h1        1 MOL      0.068638
     59 H27        -5.1220    3.8200    0.7380 h1        1 MOL      0.068638
     60 N6         -5.3730    1.4160   -1.2270 n         1 MOL     -0.285327
     61 C19        -6.1940    0.3180   -1.6460 c3        1 MOL      0.163748
     62 C20        -6.7690   -0.4980   -0.4940 c         1 MOL      0.303770
     63 O10        -7.7820   -1.1140   -0.6570 o         1 MOL     -0.541929
     64 C21        -5.6290   -0.5850   -2.7540 c3        1 MOL     -0.403928
     65 C22        -4.5030   -1.4270   -2.1880 c         1 MOL      0.856178
     66 N7         -4.5200   -2.6750   -2.3830 n         1 MOL     -0.882139
     67 O11        -3.5910   -0.9520   -1.5450 o         1 MOL     -0.693063
     68 H28        -4.3720    1.3430   -1.2540 hn        1 MOL      0.246645
     69 H29        -7.1110    0.7950   -1.9910 h1        1 MOL      0.076924
     70 H30        -5.2730   -0.0300   -3.6190 hc        1 MOL      0.127064
     71 H31        -6.3960   -1.3010   -3.0610 hc        1 MOL      0.127064
     72 H32        -5.3610   -3.0560   -2.7850 hn        1 MOL      0.396785
     73 H33        -3.7350   -3.2610   -2.1380 hn        1 MOL      0.396785
     74 N8         -6.0880   -0.5790    0.6490 n         1 MOL      0.052125
     75 C23        -6.3300   -1.4450    1.8420 c3        1 MOL     -0.320954
     76 C24        -5.0880   -2.3170    2.2840 c         1 MOL      0.670518
     77 O12        -5.3140   -3.0670    3.2300 o         1 MOL     -0.558045
     78 H34        -5.3120    0.0620    0.7310 hn        1 MOL      0.098059
     79 H35        -7.1980   -2.1090    1.7620 h1        1 MOL      0.135992
     80 H36        -6.6570   -0.6410    2.4990 h1        1 MOL      0.135992
     81 N9         -3.9420   -2.1670    1.5860 n         1 MOL     -0.558897
     82 C25        -2.8090   -3.0780    1.6290 c3        1 MOL      0.302667
     83 C26        -1.5210   -2.3160    1.4530 c         1 MOL      0.445168
     84 O13        -1.3830   -1.4420    0.6020 o         1 MOL     -0.404870
     85 C27        -2.9310   -4.1330    0.5740 c3        1 MOL      0.017159
     86 C28        -4.0780   -5.1620    0.8150 ca        1 MOL      0.072585
     87 C29        -5.3140   -4.9550    0.1400 ca        1 MOL     -0.198248
     88 C30        -3.9390   -6.3600    1.5950 ca        1 MOL     -0.198248
     89 C31        -6.3450   -5.8870    0.2120 ca        1 MOL     -0.219446
     90 C32        -5.0240   -7.2760    1.7520 ca        1 MOL     -0.219446
     91 C33        -6.1980   -7.0240    1.0530 ca        1 MOL      0.305206
     92 O14        -7.3200   -7.8910    1.0360 oh        1 MOL     -0.477339
     93 H37        -3.9180   -1.4070    0.9220 hn        1 MOL      0.243506
     94 H38        -2.8830   -3.6090    2.5800 h1        1 MOL      0.002995
     95 H39        -1.9740   -4.6600    0.6180 hc        1 MOL     -0.044261
     96 H40        -3.0400   -3.6220   -0.3860 hc        1 MOL     -0.044261
     97 H41        -5.5710   -3.9900   -0.2810 ha        1 MOL      0.137688
     98 H42        -2.9900   -6.4940    2.1020 ha        1 MOL      0.137688
     99 H43        -7.2810   -5.7150   -0.2870 ha        1 MOL      0.151708
    100 H44        -4.9620   -8.1550    2.3920 ha        1 MOL      0.151708
    101 H45        -7.1050   -8.6560    1.5670 ho        1 MOL      0.342797
    102 N10        -0.5280   -2.7220    2.2640 n         1 MOL     -0.526077
    103 C34         0.9070   -2.3120    2.0690 c3        1 MOL      0.188486
    104 C35         1.6110   -3.5120    1.4980 c         1 MOL      0.402084
    105 O15         1.8710   -4.5910    2.1020 o         1 MOL     -0.563415
    106 C36         1.6080   -1.9150    3.4440 c3        1 MOL      0.061910
    107 C37         0.9370   -0.7460    4.2270 c3        1 MOL      0.262097
    108 C38         3.1500   -1.5550    3.3480 c3        1 MOL     -0.228301
    109 C39         1.4010   -0.4270    5.6440 c3        1 MOL     -0.195382
    110 H46        -0.6350   -3.5230    2.8630 hn        1 MOL      0.297331
    111 H47         0.8770   -1.4620    1.3800 h1        1 MOL      0.037423
    112 H48         1.4750   -2.7560    4.1240 hc        1 MOL     -0.004118
    113 H49        -0.1250   -0.9680    4.2800 hc        1 MOL     -0.060355
    114 H50         1.1480    0.1870    3.7050 hc        1 MOL     -0.060355
    115 H51         3.6150   -1.5200    4.3320 hc        1 MOL      0.050505
    116 H52         3.6990   -2.3560    2.8480 hc        1 MOL      0.050505
    117 H53         3.3680   -0.6300    2.8170 hc        1 MOL      0.050505
    118 H54         2.4660   -0.1810    5.6390 hc        1 MOL      0.035357
    119 H55         0.8200    0.3820    6.0780 hc        1 MOL      0.035357
    120 H56         1.2690   -1.2810    6.3030 hc        1 MOL      0.035357
    121 N11         2.0930   -3.3200    0.2840 n         1 MOL     -0.036194
    122 C40         3.0880   -4.1590   -0.4070 c3        1 MOL     -0.068617
    123 C41         4.5660   -3.8360   -0.0550 c         1 MOL      0.454784
    124 O16         4.9710   -2.7860    0.5460 o         1 MOL     -0.397352
    125 C42         2.8960   -4.0970   -1.8560 c3        1 MOL      0.051773
    126 O17         3.2570   -2.8880   -2.4900 oh        1 MOL     -0.605199
    127 H57         1.8320   -2.4650   -0.1860 hn        1 MOL     -0.031147
    128 H58         2.8950   -5.2040   -0.1600 h1        1 MOL      0.061068
    129 H59         1.8910   -4.4280   -2.0920 h1        1 MOL      0.047206
    130 H60         3.5300   -4.8740   -2.2740 h1        1 MOL      0.047206
    131 H61         2.6100   -2.2510   -2.1800 ho        1 MOL      0.440305
    132 N12         5.5020   -4.7260   -0.3470 n         1 MOL     -0.386488
    133 C43         6.9220   -4.5370    0.0890 c3        1 MOL      0.147590
    134 C44         7.6940   -3.4890   -0.6880 c         1 MOL      0.434134
    135 O18         8.4480   -2.6770   -0.0660 o         1 MOL     -0.508806
    136 C45         7.6810   -5.8900    0.0130 c3        1 MOL     -0.391636
    137 H62         5.2410   -5.5920   -0.7960 hn        1 MOL      0.272237
    138 H63         6.8470   -4.1800    1.1090 h1        1 MOL      0.092444
    139 H64         7.5740   -6.4870    0.9170 hc        1 MOL      0.115596
    140 H65         7.2020   -6.5430   -0.7070 hc        1 MOL      0.115596
    141 H66         8.7370   -5.7180   -0.1900 hc        1 MOL      0.115596
    142 N13         7.3960   -3.2680   -1.9880 n         1 MOL     -0.383438
    143 C46         7.9080   -2.1340   -2.7770 c3        1 MOL      0.188096
    144 C47         7.3570   -0.7300   -2.2750 c         1 MOL      0.380170
    145 O19         8.1490    0.1690   -2.1120 o         1 MOL     -0.495368
    146 C48         7.6010   -2.4430   -4.2100 c3        1 MOL     -0.401156
    147 H67         6.8590   -3.9920   -2.4230 hn        1 MOL      0.256553
    148 H68         8.9820   -2.1770   -2.5940 h1        1 MOL      0.076800
    149 H69         8.1180   -3.3200   -4.5900 hc        1 MOL      0.111443
    150 H70         6.5420   -2.6770   -4.3220 hc        1 MOL      0.111443
    151 H71         7.8530   -1.5070   -4.7210 hc        1 MOL      0.111443
    152 N14         6.0920   -0.4690   -1.8540 n         1 MOL     -0.170761
    153 C49         5.6890    0.8220   -1.3510 c3        1 MOL     -0.051368
    154 C50         6.2160    1.0890    0.0760 c         1 MOL      0.475529
    155 O20         6.7350    2.1500    0.3380 o         1 MOL     -0.548996
    156 C51         4.1650    0.9390   -1.5470 c3        1 MOL     -0.124332
    157 C52         3.4060    0.0970   -0.4990 c3        1 MOL      0.003527
    158 C53         1.9290   -0.0590   -0.8670 c         1 MOL      0.802662
    159 O21         1.5560   -1.0740   -1.5400 o         1 MOL     -0.800826
    160 O22         1.0030    0.6600   -0.4120 o         1 MOL     -0.800826
    161 H72         5.4120   -1.2090   -1.9570 hn        1 MOL      0.159903
    162 H73         6.1900    1.5540   -1.9890 h1        1 MOL      0.102939
    163 H74         3.9320    0.6450   -2.5650 hc        1 MOL      0.049107
    164 H75         3.8680    1.9930   -1.4910 hc        1 MOL      0.049107
    165 H76         3.5690    0.5770    0.4720 hc        1 MOL      0.001656
    166 H77         3.8100   -0.9080   -0.4890 hc        1 MOL      0.001656
    167 N15         6.3830    0.0040    0.8870 n         1 MOL      0.022680
    168 C54         7.0530    0.0450    2.1340 c3        1 MOL     -0.381083
    169 H78         6.8890   -0.8920    2.6650 h1        1 MOL      0.125164
    170 H79         8.1210    0.1860    1.9680 h1        1 MOL      0.125164
    171 H80         6.6650    0.8720    2.7280 h1        1 MOL      0.125164
    172 H81         6.1130   -0.8890    0.5110 hn        1 MOL      0.075634
    173 Ca1        -1.0920   -0.2340   -1.6230 Ca        1 MOL      1.768006
    174 O23        -1.4180   -1.4210   -3.9850 oh        1 MOL     -0.803487
    175 H82        -0.6600   -1.5880   -4.5380 ho        1 MOL      0.397041
    176 H83        -2.0630   -2.0680   -4.2550 ho        1 MOL      0.397041
    177 O24        -0.5270   -3.1860   -1.7460 oh        1 MOL     -0.803487
    178 H84        -0.6950   -4.1210   -1.6230 ho        1 MOL      0.397041
    179 H85         0.1850   -3.1360   -2.3770 ho        1 MOL      0.397041
@<TRIPOS>BOND
     1    1    2 1   
     2    1    4 1   
     3    1    5 1   
     4    1    6 1   
     5    2    3 2   
     6    2    7 1   
     7    7    8 1   
     8    7   15 1   
     9    8    9 1   
    10    8   11 1   
    11    8   16 1   
    12    9   10 2   
    13    9   19 1   
    14   11   12 1   
    15   11   17 1   
    16   11   18 1   
    17   12   13 1   
    18   12   14 1   
    19   19   20 1   
    20   19   28 1   
    21   20   21 1   
    22   20   23 1   
    23   20   29 1   
    24   21   22 2   
    25   21   41 1   
    26   23   24 1   
    27   23   30 1   
    28   23   31 1   
    29   24   25 1   
    30   24   32 1   
    31   24   33 1   
    32   25   26 1   
    33   25   34 1   
    34   25   35 1   
    35   26   27 1   
    36   26   36 1   
    37   26   37 1   
    38   27   38 1   
    39   27   39 1   
    40   27   40 1   
    41   41   42 1   
    42   41   49 1   
    43   42   43 1   
    44   42   45 1   
    45   42   50 1   
    46   43   44 2   
    47   43   53 1   
    48   45   46 1   
    49   45   51 1   
    50   45   52 1   
    51   46   47 1   
    52   46   48 1   
    53   53   54 1   
    54   53   57 1   
    55   54   55 1   
    56   54   58 1   
    57   54   59 1   
    58   55   56 2   
    59   55   60 1   
    60   60   61 1   
    61   60   68 1   
    62   61   62 1   
    63   61   64 1   
    64   61   69 1   
    65   62   63 2   
    66   62   74 1   
    67   64   65 1   
    68   64   70 1   
    69   64   71 1   
    70   65   66 1   
    71   65   67 2   
    72   66   72 1   
    73   66   73 1   
    74   74   75 1   
    75   74   78 1   
    76   75   76 1   
    77   75   79 1   
    78   75   80 1   
    79   76   77 2   
    80   76   81 1   
    81   81   82 1   
    82   81   93 1   
    83   82   83 1   
    84   82   85 1   
    85   82   94 1   
    86   83   84 2   
    87   83  102 1   
    88   85   86 1   
    89   85   95 1   
    90   85   96 1   
    91   86   87 ar  
    92   86   88 ar  
    93   87   89 ar  
    94   87   97 1   
    95   88   90 ar  
    96   88   98 1   
    97   89   91 ar  
    98   89   99 1   
    99   90   91 ar  
   100   90  100 1   
   101   91   92 1   
   102   92  101 1   
   103  102  103 1   
   104  102  110 1   
   105  103  104 1   
   106  103  106 1   
   107  103  111 1   
   108  104  105 2   
   109  104  121 1   
   110  106  107 1   
   111  106  108 1   
   112  106  112 1   
   113  107  109 1   
   114  107  113 1   
   115  107  114 1   
   116  108  115 1   
   117  108  116 1   
   118  108  117 1   
   119  109  118 1   
   120  109  119 1   
   121  109  120 1   
   122  121  122 1   
   123  121  127 1   
   124  122  123 1   
   125  122  125 1   
   126  122  128 1   
   127  123  124 2   
   128  123  132 1   
   129  125  126 1   
   130  125  129 1   
   131  125  130 1   
   132  126  131 1   
   133  132  133 1   
   134  132  137 1   
   135  133  134 1   
   136  133  136 1   
   137  133  138 1   
   138  134  135 2   
   139  134  142 1   
   140  136  139 1   
   141  136  140 1   
   142  136  141 1   
   143  142  143 1   
   144  142  147 1   
   145  143  144 1   
   146  143  146 1   
   147  143  148 1   
   148  144  145 2   
   149  144  152 1   
   150  146  149 1   
   151  146  150 1   
   152  146  151 1   
   153  152  153 1   
   154  152  161 1   
   155  153  154 1   
   156  153  156 1   
   157  153  162 1   
   158  154  155 2   
   159  154  167 1   
   160  156  157 1   
   161  156  163 1   
   162  156  164 1   
   163  157  158 1   
   164  157  165 1   
   165  157  166 1   
   166  158  159 1   
   167  158  160 1   
   168  167  168 1   
   169  167  172 1   
   170  168  169 1   
   171  168  170 1   
   172  168  171 1   
   173  174  175 1   
   174  174  176 1   
   175  177  178 1   
   176  177  179 1   
@<TRIPOS>SUBSTRUCTURE
     1 MOL         1 TEMP              0 ****  ****    0 ROOT
