@<TRIPOS>MOLECULE
MOL
  179   176     1     0     0
SMALL
resp


@<TRIPOS>ATOM
      1 C1          2.7830    2.9570    3.6840 c3        1 MOL     -0.435596
      2 C2          1.7620    2.7890    2.6050 c         1 MOL      0.700882
      3 O1          2.0830    2.8300    1.4110 o         1 MOL     -0.573707
      4 H1          3.5610    3.6420    3.3440 hc        1 MOL      0.105174
      5 H2          2.3070    3.3630    4.5760 hc        1 MOL      0.105174
      6 H3          3.2290    1.9900    3.9170 hc        1 MOL      0.105174
      7 N1          0.5100    2.7030    2.9480 n         1 MOL     -0.659113
      8 C3         -0.6390    2.7270    2.0560 c3        1 MOL      0.301614
      9 C4         -1.0070    4.1170    1.4580 c         1 MOL      0.548709
     10 O2         -2.1580    4.4930    1.6680 o         1 MOL     -0.474098
     11 C5         -1.8980    2.0100    2.6240 c3        1 MOL     -0.402807
     12 C6         -3.0380    1.7030    1.6020 c         1 MOL      0.780921
     13 O3         -4.2360    1.5540    1.9890 o         1 MOL     -0.667612
     14 O4         -2.7570    1.5550    0.3960 o         1 MOL     -0.667612
     15 H4          0.3220    2.5580    3.9280 hn        1 MOL      0.338294
     16 H5         -0.2970    2.1870    1.1740 h1        1 MOL     -0.009489
     17 H6         -2.2420    2.6970    3.3970 hc        1 MOL      0.086272
     18 H7         -1.4770    1.0940    3.0490 hc        1 MOL      0.086272
     19 N2         -0.1030    4.9290    0.8990 n         1 MOL     -0.582205
     20 C7         -0.3960    6.3020    0.3820 c3        1 MOL      0.090953
     21 C8         -1.5000    6.3470   -0.6790 c         1 MOL      0.362022
     22 O5         -2.3120    7.2620   -0.7140 o         1 MOL     -0.514090
     23 C9          0.9470    6.8760   -0.1410 c3        1 MOL     -0.222692
     24 C10         1.8300    7.2320    1.0420 c3        1 MOL      0.322773
     25 C11         3.1400    8.0130    0.5950 c3        1 MOL     -0.273113
     26 C12         4.3260    8.0710    1.6050 c3        1 MOL      0.054081
     27 N3          5.3380    6.9810    1.6200 n4        1 MOL     -0.360391
     28 H8          0.8420    4.6370    0.7280 hn        1 MOL      0.387707
     29 H9         -0.7640    6.9570    1.1680 h1        1 MOL      0.099513
     30 H10         0.7210    7.7840   -0.7010 hc        1 MOL      0.061481
     31 H11         1.4960    6.1800   -0.7650 hc        1 MOL      0.061481
     32 H12         2.0600    6.2980    1.5460 hc        1 MOL     -0.060617
     33 H13         1.1810    7.8000    1.7160 hc        1 MOL     -0.060617
     34 H14         2.8030    9.0210    0.3320 hc        1 MOL      0.110819
     35 H15         3.5820    7.5060   -0.2650 hc        1 MOL      0.110819
     36 H16         3.9450    8.1620    2.6290 hx        1 MOL      0.082675
     37 H17         4.8330    9.0020    1.3470 hx        1 MOL      0.082675
     38 H18         4.9530    6.0460    1.7280 hn        1 MOL      0.334274
     39 H19         5.7600    6.8560    0.7080 hn        1 MOL      0.334274
     40 H20         6.0080    7.1210    2.3560 hn        1 MOL      0.334274
     41 N4         -1.6030    5.2680   -1.4720 n         1 MOL     -0.201703
     42 C13        -2.6750    5.0460   -2.4540 c3        1 MOL     -0.075367
     43 C14        -4.1100    4.7290   -1.9370 c         1 MOL      0.461119
     44 O6         -5.0670    4.9110   -2.6460 o         1 MOL     -0.546345
     45 C15        -2.1030    3.9960   -3.5510 c3        1 MOL     -0.079826
     46 C16        -1.8280    2.6370   -2.8680 c         1 MOL      0.655571
     47 O7         -0.7490    2.4250   -2.1840 o         1 MOL     -0.691108
     48 O8         -2.6980    1.7230   -2.9330 o         1 MOL     -0.691108
     49 H21        -0.8400    4.6240   -1.3470 hn        1 MOL      0.198084
     50 H22        -2.8370    5.9880   -2.9680 h1        1 MOL      0.104524
     51 H23        -1.1050    4.3600   -3.8140 hc        1 MOL      0.024803
     52 H24        -2.7030    4.0070   -4.4560 hc        1 MOL      0.024803
     53 N5         -4.2950    4.2290   -0.7320 n         1 MOL      0.028001
     54 C17        -5.5680    4.1490   -0.1060 c3        1 MOL     -0.286464
     55 C18        -6.2210    2.8100   -0.3380 c         1 MOL      0.655962
     56 O9         -7.4340    2.6870   -0.1780 o         1 MOL     -0.609361
     57 H25        -3.4740    4.1200   -0.1360 hn        1 MOL      0.133799
     58 H26        -6.2390    4.9270   -0.4720 h1        1 MOL      0.114504
     59 H27        -5.4750    4.2560    0.9770 h1        1 MOL      0.114504
     60 N6         -5.5580    1.7550   -0.8110 n         1 MOL     -0.124398
     61 C19        -6.3270    0.5610   -1.2440 c3        1 MOL     -0.404506
     62 C20        -6.6560   -0.4680   -0.1130 c         1 MOL      0.563963
     63 O10        -7.4230   -1.4350   -0.4150 o         1 MOL     -0.591956
     64 C21        -5.6180   -0.0750   -2.4720 c3        1 MOL      0.012993
     65 C22        -4.5340   -1.0820   -2.1750 c         1 MOL      0.458383
     66 N7         -4.3730   -2.0230   -3.0710 n         1 MOL     -0.815018
     67 O11        -3.7310   -0.9830   -1.2520 o         1 MOL     -0.239729
     68 H28        -4.5520    1.7360   -0.6940 hn        1 MOL     -0.108004
     69 H29        -7.2390    0.8850   -1.7380 h1        1 MOL      0.204382
     70 H30        -5.2990    0.6450   -3.2120 hc        1 MOL      0.084132
     71 H31        -6.4250   -0.5060   -3.0510 hc        1 MOL      0.084132
     72 H32        -4.8230   -2.0840   -3.9810 hn        1 MOL      0.355955
     73 H33        -3.9260   -2.9030   -2.8590 hn        1 MOL      0.355955
     74 N8         -6.0600   -0.3140    1.0370 n         1 MOL     -0.194313
     75 C23        -6.2440   -1.3200    2.1350 c3        1 MOL     -0.305867
     76 C24        -5.2190   -2.4420    2.2840 c         1 MOL      0.541686
     77 O12        -5.3050   -3.3120    3.1080 o         1 MOL     -0.552936
     78 H34        -5.3340    0.3550    1.2460 hn        1 MOL      0.297138
     79 H35        -7.2350   -1.7430    1.9730 h1        1 MOL      0.145563
     80 H36        -6.2730   -0.7250    3.0380 h1        1 MOL      0.145563
     81 N9         -4.1670   -2.4550    1.4580 n         1 MOL     -0.153202
     82 C25        -2.9740   -3.3320    1.4920 c3        1 MOL      0.381880
     83 C26        -1.6440   -2.6230    1.4030 c         1 MOL      0.121511
     84 O13        -1.5990   -1.5160    0.8360 o         1 MOL     -0.515378
     85 C27        -3.0980   -4.3860    0.3580 c3        1 MOL      0.143163
     86 C28        -4.3450   -5.2410    0.3360 ca        1 MOL     -0.073234
     87 C29        -4.3850   -6.4150    1.0280 ca        1 MOL     -0.093715
     88 C30        -5.4470   -4.8320   -0.4170 ca        1 MOL     -0.093715
     89 C31        -5.4280   -7.3630    0.9390 ca        1 MOL     -0.330822
     90 C32        -6.6030   -5.6430   -0.4090 ca        1 MOL     -0.330822
     91 C33        -6.5340   -6.9130    0.2580 ca        1 MOL      0.434730
     92 O14        -7.6950   -7.6680    0.2070 oh        1 MOL     -0.547060
     93 H37        -4.1280   -1.7230    0.7650 hn        1 MOL     -0.010870
     94 H38        -3.0200   -3.8240    2.4690 h1        1 MOL     -0.040175
     95 H39        -2.2500   -5.0470    0.5630 hc        1 MOL     -0.070016
     96 H40        -3.0320   -3.8360   -0.5760 hc        1 MOL     -0.070016
     97 H41        -3.5790   -6.5110    1.7480 ha        1 MOL      0.115786
     98 H42        -5.4700   -3.9000   -0.9640 ha        1 MOL      0.115786
     99 H43        -5.4650   -8.2770    1.5080 ha        1 MOL      0.180795
    100 H44        -7.4720   -5.2750   -0.9220 ha        1 MOL      0.180795
    101 H45        -8.4200   -7.1990   -0.2160 ho        1 MOL      0.377136
    102 N10        -0.4870   -3.2510    1.8060 n         1 MOL     -0.098796
    103 C34         0.8920   -2.7800    1.5210 c3        1 MOL     -0.297343
    104 C35         1.7590   -3.9160    0.9140 c         1 MOL      0.511423
    105 O15         1.4260   -5.0970    1.1240 o         1 MOL     -0.534966
    106 C36         1.5670   -2.0090    2.6520 c3        1 MOL      0.063823
    107 C37         1.9190   -2.9410    3.8570 c3        1 MOL      0.016054
    108 C38         0.5820   -0.9270    3.0990 c3        1 MOL      0.436246
    109 C39         2.7320   -2.3200    4.9760 c3        1 MOL     -0.142142
    110 H46        -0.5770   -4.1150    2.3240 hn        1 MOL      0.219605
    111 H47         0.8640   -2.0260    0.7240 h1        1 MOL      0.205836
    112 H48         2.5020   -1.6330    2.2450 hc        1 MOL     -0.077443
    113 H49         2.5560   -3.7560    3.5340 hc        1 MOL      0.016403
    114 H50         0.9730   -3.3210    4.2560 hc        1 MOL      0.016403
    115 H51        -0.3110   -1.2770    3.6100 hc        1 MOL     -0.091832
    116 H52         1.0740   -0.3830    3.9090 hc        1 MOL     -0.091832
    117 H53         0.3460   -0.2130    2.3160 hc        1 MOL     -0.091832
    118 H54         3.5650   -1.7300    4.5990 hc        1 MOL      0.031923
    119 H55         2.1160   -1.7920    5.7120 hc        1 MOL      0.031923
    120 H56         3.0770   -3.1400    5.5910 hc        1 MOL      0.031923
    121 N11         2.7590   -3.5530    0.1040 n         1 MOL     -0.310440
    122 C40         3.8770   -4.3540   -0.5400 c3        1 MOL      0.162689
    123 C41         5.2940   -3.7800   -0.2710 c         1 MOL      0.392355
    124 O16         5.4840   -2.7200    0.3390 o         1 MOL     -0.382276
    125 C42         3.6370   -4.5550   -2.0080 c3        1 MOL      0.215637
    126 O17         2.3940   -5.2980   -2.1910 oh        1 MOL     -0.567221
    127 H57         2.8830   -2.5540    0.0670 hn        1 MOL      0.180526
    128 H58         3.7690   -5.3510   -0.1060 h1        1 MOL      0.070422
    129 H59         4.4580   -4.9940   -2.5840 h1        1 MOL     -0.022866
    130 H60         3.3790   -3.5510   -2.3630 h1        1 MOL     -0.022866
    131 H61         1.7590   -4.5960   -2.3690 ho        1 MOL      0.381853
    132 N12         6.2720   -4.5630   -0.8100 n         1 MOL     -0.615187
    133 C43         7.6510   -4.3200   -0.5730 c3        1 MOL      0.327249
    134 C44         8.0520   -2.8650   -1.0010 c         1 MOL      0.411825
    135 O18         8.5670   -2.1010   -0.2090 o         1 MOL     -0.510309
    136 C45         8.4790   -5.3570   -1.3640 c3        1 MOL     -0.423393
    137 H62         6.0580   -5.2620   -1.5080 hn        1 MOL      0.354996
    138 H63         7.9060   -4.4160    0.4810 h1        1 MOL      0.060054
    139 H64         9.5030   -5.1600   -1.0210 hc        1 MOL      0.118381
    140 H65         8.0390   -6.3300   -1.1750 hc        1 MOL      0.118381
    141 H66         8.3450   -5.1710   -2.4270 hc        1 MOL      0.118381
    142 N13         7.7590   -2.4640   -2.2180 n         1 MOL     -0.326595
    143 C46         8.0980   -1.0550   -2.6260 c3        1 MOL      0.050610
    144 C47         7.2890    0.0500   -1.7200 c         1 MOL      0.307719
    145 O19         7.8040    1.1370   -1.3740 o         1 MOL     -0.504312
    146 C48         7.9510   -0.7920   -4.1420 c3        1 MOL     -0.317742
    147 H67         7.2080   -3.0050   -2.8750 hn        1 MOL      0.220736
    148 H68         9.1270   -0.9940   -2.2830 h1        1 MOL      0.123184
    149 H69         6.9820   -1.1050   -4.5500 hc        1 MOL      0.103314
    150 H70         8.1440    0.2310   -4.4570 hc        1 MOL      0.103314
    151 H71         8.7330   -1.4160   -4.5720 hc        1 MOL      0.103314
    152 N14         6.1330   -0.2510   -1.2280 n         1 MOL     -0.094317
    153 C49         5.3480    0.6770   -0.3650 c3        1 MOL     -0.106787
    154 C50         5.9450    0.8440    1.0120 c         1 MOL      0.384960
    155 O20         5.9250    1.9540    1.5460 o         1 MOL     -0.579433
    156 C51         3.8880    0.1910   -0.1620 c3        1 MOL      0.110114
    157 C52         3.1720    0.7240   -1.3840 c3        1 MOL     -0.232804
    158 C53         1.6930    0.2970   -1.2590 c         1 MOL      0.800696
    159 O21         1.2180   -0.5180   -2.0300 o         1 MOL     -0.786658
    160 O22         0.9450    0.7930   -0.4150 o         1 MOL     -0.786658
    161 H72         5.6940   -1.1310   -1.4460 hn        1 MOL      0.183638
    162 H73         5.3350    1.6790   -0.7880 h1        1 MOL      0.125714
    163 H74         3.4840    0.5490    0.7820 hc        1 MOL      0.022154
    164 H75         3.8730   -0.9030   -0.1490 hc        1 MOL      0.022154
    165 H76         3.6340    0.2320   -2.2400 hc        1 MOL      0.036888
    166 H77         3.2290    1.8160   -1.3890 hc        1 MOL      0.036888
    167 N15         6.6510   -0.1370    1.5310 n         1 MOL      0.024248
    168 C54         7.5460   -0.0210    2.6810 c3        1 MOL     -0.165510
    169 H78         8.3470    0.6820    2.4480 h1        1 MOL      0.076839
    170 H79         6.9850    0.3410    3.5430 h1        1 MOL      0.076839
    171 H80         7.9750   -0.9960    2.9090 h1        1 MOL      0.076839
    172 H81         6.4880   -1.0080    1.0490 hn        1 MOL      0.045532
    173 Ca1        -1.3600    0.0160   -1.2180 Ca        1 MOL      1.710907
    174 O23        -1.6150   -0.8120   -3.7130 oh        1 MOL     -0.815084
    175 H82        -1.9400   -0.3990   -4.5090 ho        1 MOL      0.394050
    176 H83        -1.4360   -1.7210   -3.9680 ho        1 MOL      0.394050
    177 O24        -0.9820   -2.8110   -1.6940 oh        1 MOL     -0.815084
    178 H84        -1.7430   -3.3050   -2.0060 ho        1 MOL      0.394050
    179 H85        -0.2470   -3.1310   -2.2120 ho        1 MOL      0.394050
@<TRIPOS>BOND
     1    1    2 1   
     2    1    4 1   
     3    1    5 1   
     4    1    6 1   
     5    2    3 2   
     6    2    7 1   
     7    7    8 1   
     8    7   15 1   
     9    8    9 1   
    10    8   11 1   
    11    8   16 1   
    12    9   10 2   
    13    9   19 1   
    14   11   12 1   
    15   11   17 1   
    16   11   18 1   
    17   12   13 1   
    18   12   14 1   
    19   19   20 1   
    20   19   28 1   
    21   20   21 1   
    22   20   23 1   
    23   20   29 1   
    24   21   22 2   
    25   21   41 1   
    26   23   24 1   
    27   23   30 1   
    28   23   31 1   
    29   24   25 1   
    30   24   32 1   
    31   24   33 1   
    32   25   26 1   
    33   25   34 1   
    34   25   35 1   
    35   26   27 1   
    36   26   36 1   
    37   26   37 1   
    38   27   38 1   
    39   27   39 1   
    40   27   40 1   
    41   41   42 1   
    42   41   49 1   
    43   42   43 1   
    44   42   45 1   
    45   42   50 1   
    46   43   44 2   
    47   43   53 1   
    48   45   46 1   
    49   45   51 1   
    50   45   52 1   
    51   46   47 1   
    52   46   48 1   
    53   53   54 1   
    54   53   57 1   
    55   54   55 1   
    56   54   58 1   
    57   54   59 1   
    58   55   56 2   
    59   55   60 1   
    60   60   61 1   
    61   60   68 1   
    62   61   62 1   
    63   61   64 1   
    64   61   69 1   
    65   62   63 2   
    66   62   74 1   
    67   64   65 1   
    68   64   70 1   
    69   64   71 1   
    70   65   66 1   
    71   65   67 2   
    72   66   72 1   
    73   66   73 1   
    74   74   75 1   
    75   74   78 1   
    76   75   76 1   
    77   75   79 1   
    78   75   80 1   
    79   76   77 2   
    80   76   81 1   
    81   81   82 1   
    82   81   93 1   
    83   82   83 1   
    84   82   85 1   
    85   82   94 1   
    86   83   84 2   
    87   83  102 1   
    88   85   86 1   
    89   85   95 1   
    90   85   96 1   
    91   86   87 ar  
    92   86   88 ar  
    93   87   89 ar  
    94   87   97 1   
    95   88   90 ar  
    96   88   98 1   
    97   89   91 ar  
    98   89   99 1   
    99   90   91 ar  
   100   90  100 1   
   101   91   92 1   
   102   92  101 1   
   103  102  103 1   
   104  102  110 1   
   105  103  104 1   
   106  103  106 1   
   107  103  111 1   
   108  104  105 2   
   109  104  121 1   
   110  106  107 1   
   111  106  108 1   
   112  106  112 1   
   113  107  109 1   
   114  107  113 1   
   115  107  114 1   
   116  108  115 1   
   117  108  116 1   
   118  108  117 1   
   119  109  118 1   
   120  109  119 1   
   121  109  120 1   
   122  121  122 1   
   123  121  127 1   
   124  122  123 1   
   125  122  125 1   
   126  122  128 1   
   127  123  124 2   
   128  123  132 1   
   129  125  126 1   
   130  125  129 1   
   131  125  130 1   
   132  126  131 1   
   133  132  133 1   
   134  132  137 1   
   135  133  134 1   
   136  133  136 1   
   137  133  138 1   
   138  134  135 2   
   139  134  142 1   
   140  136  139 1   
   141  136  140 1   
   142  136  141 1   
   143  142  143 1   
   144  142  147 1   
   145  143  144 1   
   146  143  146 1   
   147  143  148 1   
   148  144  145 2   
   149  144  152 1   
   150  146  149 1   
   151  146  150 1   
   152  146  151 1   
   153  152  153 1   
   154  152  161 1   
   155  153  154 1   
   156  153  156 1   
   157  153  162 1   
   158  154  155 2   
   159  154  167 1   
   160  156  157 1   
   161  156  163 1   
   162  156  164 1   
   163  157  158 1   
   164  157  165 1   
   165  157  166 1   
   166  158  159 1   
   167  158  160 1   
   168  167  168 1   
   169  167  172 1   
   170  168  169 1   
   171  168  170 1   
   172  168  171 1   
   173  174  175 1   
   174  174  176 1   
   175  177  178 1   
   176  177  179 1   
@<TRIPOS>SUBSTRUCTURE
     1 MOL         1 TEMP              0 ****  ****    0 ROOT
