@<TRIPOS>MOLECULE
MOL
  189   185     1     0     0
SMALL
resp


@<TRIPOS>ATOM
      1 C1         -1.3230    3.0750    6.0880 c3        1 MOL     -0.324731
      2 C2         -1.3710    2.6850    4.6110 c         1 MOL      0.798891
      3 O1         -0.5320    3.0870    3.8230 o         1 MOL     -0.675543
      4 H1         -2.0600    3.8540    6.2810 hc        1 MOL      0.080175
      5 H2         -1.5480    2.2030    6.7010 hc        1 MOL      0.080175
      6 H3         -0.3280    3.4460    6.3330 hc        1 MOL      0.080175
      7 N1         -2.4640    2.1230    4.1550 n         1 MOL     -0.680421
      8 C3         -2.7040    1.8840    2.7310 c3        1 MOL      0.163113
      9 C4         -2.8720    3.2550    2.0290 c         1 MOL      0.569161
     10 O2         -3.7770    3.9900    2.4040 o         1 MOL     -0.579103
     11 C5         -4.0250    1.0720    2.5470 c3        1 MOL     -0.178900
     12 C6         -4.4280    0.7800    1.0820 c         1 MOL      0.700032
     13 O3         -5.6360    0.5430    0.9370 o         1 MOL     -0.670556
     14 O4         -3.5750    0.6700    0.1660 o         1 MOL     -0.670556
     15 H4         -3.2050    1.9560    4.8160 hn        1 MOL      0.345194
     16 H5         -1.8560    1.3150    2.3680 h1        1 MOL     -0.002776
     17 H6         -4.7790    1.5610    3.1570 hc        1 MOL      0.046838
     18 H7         -3.8230    0.0920    2.9890 hc        1 MOL      0.046838
     19 N2         -2.0520    3.5730    1.0370 n         1 MOL     -0.178197
     20 C7         -2.0180    4.9120    0.3510 c3        1 MOL     -0.039763
     21 C8         -2.9150    5.0120   -0.8630 c         1 MOL      0.432333
     22 O5         -3.4510    6.0400   -1.1660 o         1 MOL     -0.557948
     23 C9         -0.5360    5.2570    0.0360 c3        1 MOL     -0.003180
     24 C10         0.1900    5.6510    1.3270 c3        1 MOL     -0.064954
     25 C11         1.6240    6.0220    0.8900 c3        1 MOL     -0.059763
     26 C12         2.3710    6.7040    2.0570 c3        1 MOL      0.129768
     27 N3          3.7640    6.9440    1.6100 n4        1 MOL     -0.420864
     28 H8         -1.3410    2.8990    0.8360 hn        1 MOL      0.192846
     29 H9         -2.3150    5.6240    1.1220 h1        1 MOL      0.065362
     30 H10        -0.5960    6.1390   -0.6160 hc        1 MOL      0.018805
     31 H11        -0.0580    4.4400   -0.4890 hc        1 MOL      0.018805
     32 H12         0.2040    4.7990    2.0090 hc        1 MOL      0.063797
     33 H13        -0.2820    6.5750    1.6580 hc        1 MOL      0.063797
     34 H14         1.5440    6.7740    0.0960 hc        1 MOL      0.026962
     35 H15         2.1950    5.1740    0.5100 hc        1 MOL      0.026962
     36 H16         2.3800    6.1500    2.9870 hx        1 MOL      0.074686
     37 H17         1.8950    7.5850    2.4780 hx        1 MOL      0.074686
     38 H18         3.9420    7.2870    0.6730 hn        1 MOL      0.332890
     39 H19         4.3380    7.4330    2.2820 hn        1 MOL      0.332890
     40 H20         4.2640    6.0680    1.5000 hn        1 MOL      0.332890
     41 N4         -3.1020    3.9490   -1.6310 n         1 MOL     -0.165805
     42 C13        -3.9420    3.8380   -2.7960 c3        1 MOL      0.061265
     43 C14        -5.1520    2.8390   -2.7010 c         1 MOL      0.438820
     44 O6         -5.6890    2.4260   -3.7230 o         1 MOL     -0.514325
     45 C15        -3.1480    3.5310   -4.0550 c3        1 MOL     -0.238110
     46 C16        -2.3590    2.2240   -3.8830 c         1 MOL      0.750026
     47 O7         -1.6780    1.8330   -4.8440 o         1 MOL     -0.669521
     48 O8         -2.4330    1.5300   -2.8620 o         1 MOL     -0.669521
     49 H21        -2.6650    3.1260   -1.2470 hn        1 MOL      0.075466
     50 H22        -4.4340    4.8030   -2.9090 h1        1 MOL      0.074424
     51 H23        -2.4490    4.3550   -4.2400 hc        1 MOL      0.065590
     52 H24        -3.7770    3.4410   -4.9450 hc        1 MOL      0.065590
     53 N5         -5.5980    2.4640   -1.5260 n         1 MOL     -0.293753
     54 C17        -7.0080    2.0220   -1.3290 c3        1 MOL     -0.158454
     55 C18        -7.3840    0.5930   -1.7890 c         1 MOL      0.515554
     56 O9         -8.5890    0.2820   -1.9540 o         1 MOL     -0.583490
     57 H25        -5.1090    2.8380   -0.7290 hn        1 MOL      0.240859
     58 H26        -7.6950    2.7270   -1.8190 h1        1 MOL      0.107753
     59 H27        -7.2700    2.0360   -0.2690 h1        1 MOL      0.107753
     60 N6         -6.4390   -0.3440   -1.9260 n         1 MOL     -0.189801
     61 C19        -6.7930   -1.7140   -2.2180 c3        1 MOL     -0.020697
     62 C20        -6.9240   -2.6370   -0.9230 c         1 MOL      0.353403
     63 O10        -7.3000   -3.7980   -0.9530 o         1 MOL     -0.538523
     64 C21        -5.7050   -2.3320   -3.1140 c3        1 MOL     -0.213895
     65 C22        -4.3210   -1.9750   -2.5830 c         1 MOL      0.677774
     66 O11        -3.3790   -1.5190   -3.3200 o         1 MOL     -0.714215
     67 O12        -4.0550   -2.0000   -1.3940 o         1 MOL     -0.714215
     68 H28        -5.4840   -0.2200   -1.6350 hn        1 MOL      0.178691
     69 H29        -7.7550   -1.8380   -2.7180 h1        1 MOL      0.133116
     70 H30        -5.8740   -1.9270   -4.1100 hc        1 MOL      0.075783
     71 H31        -5.8920   -3.3980   -3.2560 hc        1 MOL      0.075783
     72 N7         -6.7040   -2.1070    0.2370 n         1 MOL     -0.092579
     73 C23        -6.7720   -2.8020    1.5380 c3        1 MOL     -0.118655
     74 C24        -5.5400   -3.7890    1.7150 c         1 MOL      0.552146
     75 O13        -5.6860   -4.8290    2.3680 o         1 MOL     -0.554477
     76 H32        -6.4640   -1.1200    0.2800 hn        1 MOL      0.192167
     77 H33        -7.7450   -3.2640    1.6660 h1        1 MOL      0.072609
     78 H34        -6.6400   -2.0390    2.3130 h1        1 MOL      0.072609
     79 N8         -4.3820   -3.3880    1.1860 n         1 MOL     -0.328722
     80 C25        -3.0750   -4.0570    1.2520 c3        1 MOL     -0.141224
     81 C26        -1.8750   -3.1030    1.3010 c         1 MOL      0.698099
     82 O14        -1.9510   -1.9960    0.7680 o         1 MOL     -0.653076
     83 C27        -2.8580   -5.1190    0.1500 c3        1 MOL      0.445297
     84 C28        -3.6080   -6.4280    0.5450 c3        1 MOL     -0.659901
     85 O15        -3.2170   -4.6590   -1.1290 oh        1 MOL     -0.563417
     86 H35        -4.4450   -2.6130    0.5400 hn        1 MOL      0.234210
     87 H36        -3.1150   -4.5730    2.2170 h1        1 MOL      0.086536
     88 H37        -1.7790   -5.2810    0.1840 h1        1 MOL     -0.010042
     89 H38        -3.9290   -4.0250   -0.9780 ho        1 MOL      0.389423
     90 H39        -3.4380   -7.1200   -0.2830 hc        1 MOL      0.173988
     91 H40        -3.2940   -6.8490    1.4950 hc        1 MOL      0.173988
     92 H41        -4.6920   -6.3270    0.6430 hc        1 MOL      0.173988
     93 N9         -0.8050   -3.4970    1.9590 n         1 MOL     -0.565344
     94 C29         0.3950   -2.7040    2.1570 c3        1 MOL      0.040193
     95 C30         1.4360   -3.3720    1.2760 c         1 MOL      0.491362
     96 O16         1.6590   -4.5580    1.5030 o         1 MOL     -0.567574
     97 C31         0.6550   -2.6940    3.6080 c3        1 MOL      0.056801
     98 C32        -0.2060   -1.6640    4.2880 c3        1 MOL      0.170100
     99 C33         2.1660   -2.3130    3.8250 c3        1 MOL     -0.103877
    100 C34        -0.1460   -1.5950    5.7910 c3        1 MOL     -0.305408
    101 H42        -0.7480   -4.4340    2.3390 hn        1 MOL      0.292779
    102 H43         0.2910   -1.7230    1.7000 h1        1 MOL      0.032448
    103 H44         0.4640   -3.6150    4.1500 hc        1 MOL      0.038424
    104 H45        -1.2580   -1.8810    4.1060 hc        1 MOL     -0.004093
    105 H46         0.0510   -0.6650    3.9420 hc        1 MOL     -0.004093
    106 H47         2.4630   -2.3320    4.8620 hc        1 MOL      0.006108
    107 H48         2.8470   -3.0310    3.3620 hc        1 MOL      0.006108
    108 H49         2.3340   -1.3060    3.4340 hc        1 MOL      0.006108
    109 H50        -0.8060   -2.3570    6.2020 hc        1 MOL      0.062955
    110 H51         0.8720   -1.7680    6.1470 hc        1 MOL      0.062955
    111 H52        -0.4420   -0.5900    6.0780 hc        1 MOL      0.062955
    112 N10         2.1540   -2.5790    0.5330 n         1 MOL     -0.056563
    113 C35         3.2750   -3.0350   -0.3310 c3        1 MOL     -0.048998
    114 C36         4.5760   -2.8630    0.3530 c         1 MOL      0.388745
    115 O17         4.6670   -2.3770    1.4720 o         1 MOL     -0.382003
    116 C37         3.1950   -2.3990   -1.7280 c3        1 MOL      0.079059
    117 C38         1.9900   -2.9410   -2.4960 c3        1 MOL     -0.267818
    118 O18         3.0780   -0.9730   -1.5160 oh        1 MOL     -0.510823
    119 H53         1.8410   -1.6460    0.3050 hn        1 MOL      0.212491
    120 H54         3.1930   -4.1070   -0.4600 h1        1 MOL      0.060767
    121 H55         4.1130   -2.5980   -2.2750 h1        1 MOL      0.042913
    122 H56         2.1670   -0.6940   -1.5960 ho        1 MOL      0.338975
    123 H57         1.8830   -2.4270   -3.4600 hc        1 MOL      0.096098
    124 H58         2.1260   -3.9650   -2.8490 hc        1 MOL      0.096098
    125 H59         1.0780   -2.8460   -1.8920 hc        1 MOL      0.096098
    126 N11         5.6900   -3.1350   -0.3500 n         1 MOL     -0.267684
    127 C39         7.0460   -2.6320   -0.0270 c3        1 MOL     -0.388986
    128 C40         7.1840   -1.1230    0.0290 c         1 MOL      0.410699
    129 O19         7.7070   -0.5570    1.0620 o         1 MOL     -0.454691
    130 C41         8.1270   -3.2060   -0.9010 c3        1 MOL      0.632370
    131 C42         8.3950   -4.6670   -0.7490 c3        1 MOL     -0.426436
    132 O20         7.9000   -2.9080   -2.2040 oh        1 MOL     -0.681202
    133 H60         5.5440   -3.6860   -1.1930 hn        1 MOL      0.279009
    134 H61         7.3550   -2.9630    0.9720 h1        1 MOL      0.166629
    135 H62         9.0670   -2.6990   -0.6870 h1        1 MOL     -0.038310
    136 H63         8.7470   -2.6400   -2.5650 ho        1 MOL      0.339701
    137 H64         9.2310   -4.9060   -1.4090 hc        1 MOL      0.111327
    138 H65         8.7200   -4.7980    0.2770 hc        1 MOL      0.111327
    139 H66         7.5290   -5.2750   -1.0400 hc        1 MOL      0.111327
    140 N12         6.7100   -0.4610   -1.0490 n         1 MOL     -0.348377
    141 C43         6.7110    1.0330   -1.0590 c3        1 MOL     -0.039706
    142 C44         5.9400    1.6580    0.1030 c         1 MOL      0.276107
    143 O21         6.4390    2.5800    0.7820 o         1 MOL     -0.517252
    144 C45         6.2880    1.6480   -2.3830 c3        1 MOL     -0.245292
    145 C46         7.0930    1.1510   -3.5860 c3        1 MOL     -0.029418
    146 C47         8.5430    1.7280   -3.7260 c3        1 MOL     -0.012687
    147 C48         9.0330    1.3920   -5.1460 c3        1 MOL     -0.099883
    148 N13         9.3340   -0.0520   -5.2810 n4        1 MOL     -0.217452
    149 H67         6.2280   -0.8770   -1.8220 hn        1 MOL      0.332437
    150 H68         7.7370    1.2740   -0.7970 h1        1 MOL      0.121999
    151 H69         6.1990    2.7250   -2.2910 hc        1 MOL      0.127036
    152 H70         5.2850    1.3050   -2.6190 hc        1 MOL      0.127036
    153 H71         6.5100    1.6110   -4.3950 hc        1 MOL      0.031364
    154 H72         6.9510    0.0960   -3.7940 hc        1 MOL      0.031364
    155 H73         9.1470    1.1490   -3.0250 hc        1 MOL      0.059995
    156 H74         8.5700    2.7930   -3.4890 hc        1 MOL      0.059995
    157 H75         9.9520    1.9350   -5.3510 hx        1 MOL      0.122549
    158 H76         8.2560    1.6930   -5.8450 hx        1 MOL      0.122549
    159 H77         9.9000   -0.3430   -6.0580 hn        1 MOL      0.259660
    160 H78         9.6610   -0.5200   -4.4530 hn        1 MOL      0.259660
    161 H79         8.3980   -0.3860   -5.4700 hn        1 MOL      0.259660
    162 N14         4.7940    1.1400    0.5190 n         1 MOL      0.066011
    163 C49         3.9300    1.5110    1.7510 c3        1 MOL     -0.194910
    164 C50         4.5120    1.1500    3.1170 c         1 MOL      0.522592
    165 O22         4.5790    1.9860    3.9930 o         1 MOL     -0.545520
    166 C51         2.4770    0.9640    1.5210 c3        1 MOL     -0.011917
    167 C52         1.7170    1.7000    0.3570 c3        1 MOL     -0.036865
    168 C53         0.4590    0.9440   -0.1210 c         1 MOL      0.624830
    169 O23        -0.6210    1.5570   -0.3380 o         1 MOL     -0.680000
    170 O24         0.4430   -0.2570   -0.4290 o         1 MOL     -0.680000
    171 H80         4.3840    0.3760    0.0050 hn        1 MOL      0.049167
    172 H81         3.9250    2.6020    1.6990 h1        1 MOL      0.065520
    173 H82         1.8140    1.2140    2.3520 hc        1 MOL      0.062426
    174 H83         2.5550   -0.1040    1.3430 hc        1 MOL      0.062426
    175 H84         2.3870    1.9720   -0.4560 hc        1 MOL      0.002123
    176 H85         1.3320    2.6270    0.7850 hc        1 MOL      0.002123
    177 N15         5.1480   -0.0740    3.2740 n         1 MOL     -0.096677
    178 C54         5.7950   -0.5270    4.4940 c3        1 MOL     -0.341530
    179 H86         5.4130    0.0440    5.3400 h1        1 MOL      0.124439
    180 H87         5.5860   -1.5850    4.6460 h1        1 MOL      0.124439
    181 H88         6.8720   -0.3770    4.4120 h1        1 MOL      0.124439
    182 H89         5.2220   -0.5850    2.4050 hn        1 MOL      0.167968
    183 Ca1        -1.9600   -0.4860   -1.3450 Ca        1 MOL      1.756129
    184 O25        -1.2950   -3.1340   -2.0070 oh        1 MOL     -0.832518
    185 H90        -1.4390   -3.1650   -2.9540 ho        1 MOL      0.385087
    186 H91        -1.8730   -3.8180   -1.6550 ho        1 MOL      0.385087
    187 O26        -0.1030   -0.0570   -3.4170 oh        1 MOL     -0.832518
    188 H92        -0.6920    0.6540   -3.6530 ho        1 MOL      0.385087
    189 H93         0.5390   -0.0880   -4.1220 ho        1 MOL      0.385087
@<TRIPOS>BOND
     1    1    2 1   
     2    1    4 1   
     3    1    5 1   
     4    1    6 1   
     5    2    3 2   
     6    2    7 1   
     7    7    8 1   
     8    7   15 1   
     9    8    9 1   
    10    8   11 1   
    11    8   16 1   
    12    9   10 2   
    13    9   19 1   
    14   11   12 1   
    15   11   17 1   
    16   11   18 1   
    17   12   13 1   
    18   12   14 1   
    19   19   20 1   
    20   19   28 1   
    21   20   21 1   
    22   20   23 1   
    23   20   29 1   
    24   21   22 2   
    25   21   41 1   
    26   23   24 1   
    27   23   30 1   
    28   23   31 1   
    29   24   25 1   
    30   24   32 1   
    31   24   33 1   
    32   25   26 1   
    33   25   34 1   
    34   25   35 1   
    35   26   27 1   
    36   26   36 1   
    37   26   37 1   
    38   27   38 1   
    39   27   39 1   
    40   27   40 1   
    41   41   42 1   
    42   41   49 1   
    43   42   43 1   
    44   42   45 1   
    45   42   50 1   
    46   43   44 2   
    47   43   53 1   
    48   45   46 1   
    49   45   51 1   
    50   45   52 1   
    51   46   47 1   
    52   46   48 1   
    53   53   54 1   
    54   53   57 1   
    55   54   55 1   
    56   54   58 1   
    57   54   59 1   
    58   55   56 2   
    59   55   60 1   
    60   60   61 1   
    61   60   68 1   
    62   61   62 1   
    63   61   64 1   
    64   61   69 1   
    65   62   63 2   
    66   62   72 1   
    67   64   65 1   
    68   64   70 1   
    69   64   71 1   
    70   65   66 1   
    71   65   67 1   
    72   72   73 1   
    73   72   76 1   
    74   73   74 1   
    75   73   77 1   
    76   73   78 1   
    77   74   75 2   
    78   74   79 1   
    79   79   80 1   
    80   79   86 1   
    81   80   81 1   
    82   80   83 1   
    83   80   87 1   
    84   81   82 2   
    85   81   93 1   
    86   83   84 1   
    87   83   85 1   
    88   83   88 1   
    89   84   90 1   
    90   84   91 1   
    91   84   92 1   
    92   85   89 1   
    93   93   94 1   
    94   93  101 1   
    95   94   95 1   
    96   94   97 1   
    97   94  102 1   
    98   95   96 2   
    99   95  112 1   
   100   97   98 1   
   101   97   99 1   
   102   97  103 1   
   103   98  100 1   
   104   98  104 1   
   105   98  105 1   
   106   99  106 1   
   107   99  107 1   
   108   99  108 1   
   109  100  109 1   
   110  100  110 1   
   111  100  111 1   
   112  112  113 1   
   113  112  119 1   
   114  113  114 1   
   115  113  116 1   
   116  113  120 1   
   117  114  115 2   
   118  114  126 1   
   119  116  117 1   
   120  116  118 1   
   121  116  121 1   
   122  117  123 1   
   123  117  124 1   
   124  117  125 1   
   125  118  122 1   
   126  126  127 1   
   127  126  133 1   
   128  127  128 1   
   129  127  130 1   
   130  127  134 1   
   131  128  129 2   
   132  128  140 1   
   133  130  131 1   
   134  130  132 1   
   135  130  135 1   
   136  131  137 1   
   137  131  138 1   
   138  131  139 1   
   139  132  136 1   
   140  140  141 1   
   141  140  149 1   
   142  141  142 1   
   143  141  144 1   
   144  141  150 1   
   145  142  143 2   
   146  142  162 1   
   147  144  145 1   
   148  144  151 1   
   149  144  152 1   
   150  145  146 1   
   151  145  153 1   
   152  145  154 1   
   153  146  147 1   
   154  146  155 1   
   155  146  156 1   
   156  147  148 1   
   157  147  157 1   
   158  147  158 1   
   159  148  159 1   
   160  148  160 1   
   161  148  161 1   
   162  162  163 1   
   163  162  171 1   
   164  163  164 1   
   165  163  166 1   
   166  163  172 1   
   167  164  165 2   
   168  164  177 1   
   169  166  167 1   
   170  166  173 1   
   171  166  174 1   
   172  167  168 1   
   173  167  175 1   
   174  167  176 1   
   175  168  169 1   
   176  168  170 1   
   177  177  178 1   
   178  177  182 1   
   179  178  179 1   
   180  178  180 1   
   181  178  181 1   
   182  184  185 1   
   183  184  186 1   
   184  187  188 1   
   185  187  189 1   
@<TRIPOS>SUBSTRUCTURE
     1 MOL         1 TEMP              0 ****  ****    0 ROOT
