@<TRIPOS>MOLECULE
MOL
  175   173     1     0     0
SMALL
resp


@<TRIPOS>ATOM
      1 C1          0.5470    4.1570    5.2030 c3        1 MOL     -0.372912
      2 C2         -0.0910    3.9870    3.9260 c         1 MOL      0.735086
      3 O1          0.6010    3.9180    2.8910 o         1 MOL     -0.558264
      4 H1          0.3850    3.2670    5.8110 hc        1 MOL      0.088640
      5 H2          1.6170    4.3070    5.0580 hc        1 MOL      0.088640
      6 H3          0.1230    5.0240    5.7090 hc        1 MOL      0.088640
      7 N1         -1.4170    3.8470    3.9150 n         1 MOL     -0.652146
      8 C3         -2.2270    3.6630    2.6780 c3        1 MOL      0.301474
      9 C4         -2.1770    4.8400    1.7550 c         1 MOL      0.547522
     10 O2         -2.2070    6.0200    2.1940 o         1 MOL     -0.616055
     11 C5         -3.7770    3.2770    2.9350 c3        1 MOL     -0.424177
     12 C6         -4.4600    2.3220    1.8750 c         1 MOL      0.900488
     13 O3         -3.8520    1.9530    0.9050 o         1 MOL     -0.726138
     14 O4         -5.5650    1.9030    2.2050 o         1 MOL     -0.726138
     15 H4         -1.8860    3.8780    4.8030 hn        1 MOL      0.313580
     16 H5         -1.7220    2.8630    2.1530 h1        1 MOL     -0.044831
     17 H6         -4.4690    4.1120    2.9640 hc        1 MOL      0.091142
     18 H7         -3.8670    2.6730    3.8320 hc        1 MOL      0.091142
     19 N2         -2.1890    4.5450    0.5150 n         1 MOL     -0.430294
     20 C7         -2.2590    5.4310   -0.6220 c3        1 MOL      0.228313
     21 C8         -3.2770    4.9320   -1.7170 c         1 MOL      0.435396
     22 O5         -3.4250    5.6660   -2.6590 o         1 MOL     -0.551905
     23 C9         -0.8600    5.5310   -1.2580 c3        1 MOL     -0.196280
     24 H8         -1.9560    3.5830    0.2870 hn        1 MOL      0.265054
     25 H9         -2.6380    6.4150   -0.3300 h1        1 MOL      0.029416
     26 H10        -0.7430    4.6500   -1.8960 hc        1 MOL      0.053387
     27 H11        -0.8310    6.3800   -1.9500 hc        1 MOL      0.053387
     28 H12        -0.0050    5.6040   -0.5930 hc        1 MOL      0.053387
     29 N3         -3.9310    3.7640   -1.6710 n         1 MOL     -0.293709
     30 C10        -4.8420    3.2620   -2.6870 c3        1 MOL      0.124560
     31 C11        -6.1500    2.6020   -2.2500 c         1 MOL      0.310919
     32 O6         -7.1330    2.7060   -2.9860 o         1 MOL     -0.542257
     33 C12        -4.0200    2.3220   -3.6080 c3        1 MOL     -0.170240
     34 C13        -3.2710    1.2730   -2.7360 c         1 MOL      0.732704
     35 O7         -3.9240    0.6750   -1.8710 o         1 MOL     -0.719859
     36 O8         -2.0730    1.0080   -2.9210 o         1 MOL     -0.719859
     37 H13        -3.7360    3.1750   -0.8800 hn        1 MOL      0.124072
     38 H14        -5.0930    4.0670   -3.3860 h1        1 MOL      0.066098
     39 H15        -3.3530    2.8940   -4.2530 hc        1 MOL      0.045203
     40 H16        -4.6280    1.6870   -4.2540 hc        1 MOL      0.045203
     41 N4         -6.2190    2.0540   -1.0310 n         1 MOL     -0.020224
     42 C14        -7.4580    1.3370   -0.5840 c3        1 MOL     -0.351646
     43 C15        -7.3900   -0.1640   -1.0180 c         1 MOL      0.594581
     44 O9         -8.4280   -0.8420   -1.0080 o         1 MOL     -0.621010
     45 H17        -5.4120    2.1460   -0.4300 hn        1 MOL      0.059559
     46 H18        -8.3080    1.8910   -0.9580 h1        1 MOL      0.156723
     47 H19        -7.3850    1.2860    0.5000 h1        1 MOL      0.156723
     48 N5         -6.2670   -0.7620   -1.5100 n         1 MOL     -0.196806
     49 C16        -6.2510   -2.0850   -2.1460 c3        1 MOL     -0.069457
     50 C17        -6.2670   -3.2980   -1.1370 c         1 MOL      0.365505
     51 O10        -6.0740   -4.4720   -1.5090 o         1 MOL     -0.520104
     52 C18        -5.0600   -2.1310   -3.1230 c3        1 MOL     -0.103125
     53 C19        -3.7390   -2.1610   -2.3840 c         1 MOL      0.489367
     54 N6         -2.6650   -2.2920   -3.1410 n         1 MOL     -0.566627
     55 O11        -3.5860   -2.0300   -1.1540 o         1 MOL     -0.410168
     56 H20        -5.3570   -0.3260   -1.4560 hn        1 MOL      0.170273
     57 H21        -7.1240   -2.1670   -2.7980 h1        1 MOL      0.106808
     58 H22        -5.0550   -1.2970   -3.8290 hc        1 MOL      0.052153
     59 H23        -5.0030   -3.0070   -3.7670 hc        1 MOL      0.052153
     60 H24        -2.8790   -2.5330   -4.1080 hn        1 MOL      0.298772
     61 H25        -1.7200   -2.0720   -2.8710 hn        1 MOL      0.298772
     62 N7         -6.4010   -2.9650    0.1170 n         1 MOL     -0.106588
     63 C20        -6.2860   -3.8020    1.3670 c3        1 MOL     -0.443304
     64 C21        -4.8940   -4.3920    1.7770 c         1 MOL      0.578046
     65 O12        -4.8050   -4.9310    2.8700 o         1 MOL     -0.587048
     66 H26        -6.5510   -1.9910    0.3430 hn        1 MOL      0.182645
     67 H27        -6.9760   -4.6490    1.3180 h1        1 MOL      0.172610
     68 H28        -6.5460   -3.1300    2.1890 h1        1 MOL      0.172610
     69 N8         -3.7850   -4.1340    1.0220 n         1 MOL     -0.075653
     70 C22        -2.3610   -4.5630    1.3600 c3        1 MOL     -0.249385
     71 C23        -1.4140   -3.4420    1.6040 c         1 MOL      0.584242
     72 O13        -1.4960   -2.4030    1.0210 o         1 MOL     -0.544550
     73 C24        -1.7640   -5.4330    0.1260 c3        1 MOL      0.428752
     74 C25        -2.3730   -6.7910   -0.2980 c3        1 MOL     -0.315655
     75 O14        -1.9080   -4.6150   -1.0170 oh        1 MOL     -0.582154
     76 H29        -3.8500   -3.4150    0.3140 hn        1 MOL      0.101196
     77 H30        -2.2780   -5.1500    2.2740 h1        1 MOL      0.088331
     78 H31        -0.6860   -5.5450    0.2460 h1        1 MOL     -0.005840
     79 H32        -1.8250   -3.6780   -0.8000 ho        1 MOL      0.298573
     80 H33        -2.0190   -7.5220    0.4310 hc        1 MOL      0.077264
     81 H34        -3.4590   -6.7030   -0.3060 hc        1 MOL      0.077264
     82 H35        -1.9790   -7.0650   -1.2860 hc        1 MOL      0.077264
     83 N9         -0.3650   -3.6610    2.3140 n         1 MOL     -0.441280
     84 C26         0.8930   -2.8540    2.2470 c3        1 MOL     -0.108172
     85 C27         1.6090   -3.2570    0.9270 c         1 MOL      0.602457
     86 O15         1.9980   -4.4100    0.7380 o         1 MOL     -0.596602
     87 C28         1.7530   -2.9030    3.5750 c3        1 MOL      0.103893
     88 C29         1.0030   -2.2130    4.7420 c3        1 MOL      0.231583
     89 C30         2.9950   -2.0010    3.4410 c3        1 MOL     -0.276197
     90 C31         1.4770   -2.6060    6.0870 c3        1 MOL     -0.391435
     91 H36        -0.2740   -4.5390    2.8070 hn        1 MOL      0.262491
     92 H37         0.6600   -1.7820    2.2160 h1        1 MOL      0.031302
     93 H38         2.0820   -3.9220    3.8280 hc        1 MOL      0.021720
     94 H39        -0.0370   -2.5220    4.6760 hc        1 MOL     -0.020501
     95 H40         0.9430   -1.1270    4.6260 hc        1 MOL     -0.020501
     96 H41         3.5410   -2.0990    2.5060 hc        1 MOL      0.059535
     97 H42         2.6750   -0.9610    3.5140 hc        1 MOL      0.059535
     98 H43         3.5870   -2.2820    4.3050 hc        1 MOL      0.059535
     99 H44         2.4460   -2.1530    6.2900 hc        1 MOL      0.082880
    100 H45         0.7180   -2.1820    6.7490 hc        1 MOL      0.082880
    101 H46         1.6920   -3.6660    6.1850 hc        1 MOL      0.082880
    102 N10         1.7900   -2.2550    0.0420 n         1 MOL     -0.165541
    103 C32         2.6950   -2.1220   -1.1570 c3        1 MOL     -0.040819
    104 C33         4.0970   -1.5650   -0.8850 c         1 MOL      0.508696
    105 O16         4.2730   -0.8990    0.1320 o         1 MOL     -0.358589
    106 C34         1.9400   -1.1710   -2.1940 c3        1 MOL     -0.400084
    107 C35         0.5610   -1.6480   -2.5280 c         1 MOL      0.894168
    108 O17        -0.4240   -1.2980   -1.8900 o         1 MOL     -0.721214
    109 O18         0.4550   -2.4040   -3.5470 o         1 MOL     -0.721214
    110 H47         1.3430   -1.3980    0.3270 hn        1 MOL      0.076411
    111 H48         2.8350   -3.1000   -1.6240 h1        1 MOL      0.094170
    112 H49         2.3470   -1.1040   -3.2090 hc        1 MOL      0.116997
    113 H50         1.8930   -0.1530   -1.8050 hc        1 MOL      0.116997
    114 N11         5.1570   -1.9350   -1.6640 n         1 MOL     -0.757600
    115 C36         6.5260   -1.3510   -1.2670 c3        1 MOL      0.562887
    116 C37         6.5210    0.2060   -1.2080 c         1 MOL      0.261800
    117 O19         7.2190    0.6660   -0.3220 o         1 MOL     -0.486239
    118 C38         7.5330   -1.8710   -2.2950 c3        1 MOL     -0.323633
    119 C39         8.9680   -1.6390   -1.9410 ca        1 MOL      0.044293
    120 C40         9.5070   -2.2200   -0.7430 ca        1 MOL     -0.107050
    121 C41         9.8130   -0.7950   -2.7340 ca        1 MOL     -0.107050
    122 C42        10.8090   -1.9140   -0.3580 ca        1 MOL     -0.137433
    123 C43        11.1390   -0.6610   -2.3880 ca        1 MOL     -0.137433
    124 C44        11.6310   -1.1860   -1.1820 ca        1 MOL     -0.091776
    125 H51         4.9560   -2.5600   -2.4350 hn        1 MOL      0.364200
    126 H52         6.7690   -1.7840   -0.2960 h1        1 MOL      0.023531
    127 H53         7.3490   -1.4090   -3.2690 hc        1 MOL      0.096781
    128 H54         7.3840   -2.9450   -2.3980 hc        1 MOL      0.096781
    129 H55         8.9460   -2.9720   -0.2170 ha        1 MOL      0.103381
    130 H56         9.4120   -0.4250   -3.6690 ha        1 MOL      0.103381
    131 H57        11.1650   -2.3130    0.5860 ha        1 MOL      0.111595
    132 H58        11.7200   -0.0040   -3.0260 ha        1 MOL      0.111595
    133 H59        12.6350   -0.9710   -0.8620 ha        1 MOL      0.097808
    134 N12         5.8040    0.9940   -2.0750 n         1 MOL     -0.039616
    135 C45         5.8030    2.4410   -1.9340 c3        1 MOL     -0.017166
    136 C46         5.2410    2.8860   -0.5920 c         1 MOL      0.304565
    137 O20         5.3740    4.0990   -0.2570 o         1 MOL     -0.556153
    138 C47         5.0810    3.1110   -3.1100 c3        1 MOL     -0.053769
    139 C48         5.0940    1.9410   -4.0910 c3        1 MOL      0.107579
    140 C49         5.1280    0.6560   -3.2410 c3        1 MOL     -0.012612
    141 H60         6.8430    2.7670   -1.8730 h1        1 MOL      0.085526
    142 H61         4.0740    3.4690   -2.8710 hc        1 MOL      0.045756
    143 H62         5.6190    3.9710   -3.4990 hc        1 MOL      0.045756
    144 H63         4.3380    1.9140   -4.8740 hc        1 MOL     -0.021207
    145 H64         6.0690    2.1090   -4.5540 hc        1 MOL     -0.021207
    146 H65         4.1100    0.3190   -3.0300 h1        1 MOL      0.008325
    147 H66         5.6500   -0.1060   -3.8240 h1        1 MOL      0.008325
    148 N13         4.7360    2.0150    0.2090 n         1 MOL     -0.014106
    149 C50         4.1580    2.2500    1.5280 c3        1 MOL     -0.050699
    150 C51         4.9500    1.6250    2.6870 c         1 MOL      0.436958
    151 O21         4.9890    2.1230    3.7940 o         1 MOL     -0.550702
    152 C52         2.7680    1.6520    1.5690 c3        1 MOL     -0.034244
    153 C53         1.8230    2.1850    0.4010 c3        1 MOL     -0.122166
    154 C54         0.4450    1.4800    0.3350 c         1 MOL      0.430132
    155 O22        -0.5490    2.0530   -0.1670 o         1 MOL     -0.570489
    156 O23         0.4000    0.2230    0.6860 o         1 MOL     -0.570489
    157 H67         4.5730    1.0840   -0.1450 hn        1 MOL      0.053451
    158 H68         4.0080    3.3080    1.7530 h1        1 MOL      0.098052
    159 H69         2.3810    1.7480    2.5880 hc        1 MOL      0.055877
    160 H70         2.8210    0.5650    1.4570 hc        1 MOL      0.055877
    161 H71         2.3270    2.0630   -0.5570 hc        1 MOL      0.085112
    162 H72         1.7440    3.2690    0.5260 hc        1 MOL      0.085112
    163 N14         5.6570    0.5630    2.3460 n         1 MOL     -0.133278
    164 C55         6.7090   -0.0370    3.2160 c3        1 MOL     -0.104561
    165 H73         6.2930   -0.8910    3.7510 h1        1 MOL      0.056189
    166 H74         7.5460   -0.3660    2.6010 h1        1 MOL      0.056189
    167 H75         7.0560    0.7070    3.9340 h1        1 MOL      0.056189
    168 H76         5.5530    0.1020    1.4480 hn        1 MOL      0.099144
    169 Ca1        -2.0780   -0.1310   -0.1540 Ca        1 MOL      1.727940
    170 O24        -1.4310    0.4340    2.9450 oh        1 MOL     -0.775454
    171 H77        -0.5480    0.7200    2.6810 ho        1 MOL      0.381572
    172 H78        -1.4720    0.6290    3.8790 ho        1 MOL      0.381572
    173 O25        -4.2360   -0.8650    1.5010 oh        1 MOL     -0.775454
    174 H79        -4.6120    0.0110    1.4800 ho        1 MOL      0.381572
    175 H80        -4.5570   -1.2450    2.3250 ho        1 MOL      0.381572
@<TRIPOS>BOND
     1    1    2 1   
     2    1    4 1   
     3    1    5 1   
     4    1    6 1   
     5    2    3 2   
     6    2    7 1   
     7    7    8 1   
     8    7   15 1   
     9    8    9 1   
    10    8   11 1   
    11    8   16 1   
    12    9   10 2   
    13    9   19 1   
    14   11   12 1   
    15   11   17 1   
    16   11   18 1   
    17   12   13 1   
    18   12   14 1   
    19   19   20 1   
    20   19   24 1   
    21   20   21 1   
    22   20   23 1   
    23   20   25 1   
    24   21   22 2   
    25   21   29 1   
    26   23   26 1   
    27   23   27 1   
    28   23   28 1   
    29   29   30 1   
    30   29   37 1   
    31   30   31 1   
    32   30   33 1   
    33   30   38 1   
    34   31   32 2   
    35   31   41 1   
    36   33   34 1   
    37   33   39 1   
    38   33   40 1   
    39   34   35 1   
    40   34   36 1   
    41   41   42 1   
    42   41   45 1   
    43   42   43 1   
    44   42   46 1   
    45   42   47 1   
    46   43   44 2   
    47   43   48 1   
    48   48   49 1   
    49   48   56 1   
    50   49   50 1   
    51   49   52 1   
    52   49   57 1   
    53   50   51 2   
    54   50   62 1   
    55   52   53 1   
    56   52   58 1   
    57   52   59 1   
    58   53   54 1   
    59   53   55 2   
    60   54   60 1   
    61   54   61 1   
    62   62   63 1   
    63   62   66 1   
    64   63   64 1   
    65   63   67 1   
    66   63   68 1   
    67   64   65 2   
    68   64   69 1   
    69   69   70 1   
    70   69   76 1   
    71   70   71 1   
    72   70   73 1   
    73   70   77 1   
    74   71   72 2   
    75   71   83 1   
    76   73   74 1   
    77   73   75 1   
    78   73   78 1   
    79   74   80 1   
    80   74   81 1   
    81   74   82 1   
    82   75   79 1   
    83   83   84 1   
    84   83   91 1   
    85   84   85 1   
    86   84   87 1   
    87   84   92 1   
    88   85   86 2   
    89   85  102 1   
    90   87   88 1   
    91   87   89 1   
    92   87   93 1   
    93   88   90 1   
    94   88   94 1   
    95   88   95 1   
    96   89   96 1   
    97   89   97 1   
    98   89   98 1   
    99   90   99 1   
   100   90  100 1   
   101   90  101 1   
   102  102  103 1   
   103  102  110 1   
   104  103  104 1   
   105  103  106 1   
   106  103  111 1   
   107  104  105 2   
   108  104  114 1   
   109  106  107 1   
   110  106  112 1   
   111  106  113 1   
   112  107  108 1   
   113  107  109 1   
   114  114  115 1   
   115  114  125 1   
   116  115  116 1   
   117  115  118 1   
   118  115  126 1   
   119  116  117 2   
   120  116  134 1   
   121  118  119 1   
   122  118  127 1   
   123  118  128 1   
   124  119  120 ar  
   125  119  121 ar  
   126  120  122 ar  
   127  120  129 1   
   128  121  123 ar  
   129  121  130 1   
   130  122  124 ar  
   131  122  131 1   
   132  123  124 ar  
   133  123  132 1   
   134  124  133 1   
   135  134  135 1   
   136  134  140 1   
   137  135  136 1   
   138  135  138 1   
   139  135  141 1   
   140  136  137 2   
   141  136  148 1   
   142  138  139 1   
   143  138  142 1   
   144  138  143 1   
   145  139  140 1   
   146  139  144 1   
   147  139  145 1   
   148  140  146 1   
   149  140  147 1   
   150  148  149 1   
   151  148  157 1   
   152  149  150 1   
   153  149  152 1   
   154  149  158 1   
   155  150  151 2   
   156  150  163 1   
   157  152  153 1   
   158  152  159 1   
   159  152  160 1   
   160  153  154 1   
   161  153  161 1   
   162  153  162 1   
   163  154  155 1   
   164  154  156 1   
   165  163  164 1   
   166  163  168 1   
   167  164  165 1   
   168  164  166 1   
   169  164  167 1   
   170  170  171 1   
   171  170  172 1   
   172  173  174 1   
   173  173  175 1   
@<TRIPOS>SUBSTRUCTURE
     1 MOL         1 TEMP              0 ****  ****    0 ROOT
