@<TRIPOS>MOLECULE
MOL
  179   176     1     0     0
SMALL
resp


@<TRIPOS>ATOM
      1 C1          2.6420    3.4510    3.9720 c3        1 MOL     -0.473560
      2 C2          1.6430    3.3570    2.7520 c         1 MOL      0.665971
      3 O1          2.0140    3.6590    1.6370 o         1 MOL     -0.570621
      4 H1          3.4140    4.1890    3.7530 hc        1 MOL      0.123098
      5 H2          2.0970    3.7520    4.8670 hc        1 MOL      0.123098
      6 H3          3.1060    2.4790    4.1380 hc        1 MOL      0.123098
      7 N1          0.3390    3.0290    2.9780 n         1 MOL     -0.560414
      8 C3         -0.6640    2.7210    1.9380 c3        1 MOL      0.240512
      9 C4         -1.1550    4.0390    1.2630 c         1 MOL      0.321012
     10 O2         -2.2270    4.5190    1.6220 o         1 MOL     -0.464278
     11 C5         -1.7930    1.8190    2.4750 c3        1 MOL     -0.218795
     12 C6         -2.8770    1.3520    1.4050 c         1 MOL      0.639984
     13 O3         -3.9220    0.8440    1.8740 o         1 MOL     -0.608337
     14 O4         -2.5600    1.3550    0.2120 o         1 MOL     -0.608337
     15 H4          0.1130    2.8680    3.9470 hn        1 MOL      0.307225
     16 H5         -0.1020    2.2070    1.1590 h1        1 MOL     -0.054902
     17 H6         -2.3620    2.4500    3.1560 hc        1 MOL      0.056074
     18 H7         -1.4040    0.9580    3.0190 hc        1 MOL      0.056074
     19 N2         -0.4110    4.7290    0.4300 n         1 MOL     -0.208857
     20 C7         -0.6420    6.1540   -0.0630 c3        1 MOL      0.131059
     21 C8         -1.8570    6.1390   -0.9590 c         1 MOL      0.264478
     22 O5         -2.5810    7.1080   -0.8380 o         1 MOL     -0.513857
     23 C9          0.5370    6.5900   -0.9550 c3        1 MOL     -0.242445
     24 C10         1.8380    6.9270   -0.2470 c3        1 MOL      0.087665
     25 C11         1.7410    7.6390    1.0950 c3        1 MOL     -0.040493
     26 C12         3.1880    8.0050    1.5520 c3        1 MOL      0.096724
     27 N3          3.0600    8.8370    2.7720 n4        1 MOL     -0.404131
     28 H8          0.4390    4.2460    0.1590 hn        1 MOL      0.306890
     29 H9         -0.8630    6.8310    0.7670 h1        1 MOL      0.050942
     30 H10         0.2860    7.5680   -1.3570 hc        1 MOL      0.095854
     31 H11         0.5870    5.7940   -1.7030 hc        1 MOL      0.095854
     32 H12         2.4370    7.4710   -0.9930 hc        1 MOL      0.001332
     33 H13         2.3360    5.9770   -0.0510 hc        1 MOL      0.001332
     34 H14         1.2240    6.9730    1.7770 hc        1 MOL      0.027940
     35 H15         1.1490    8.5390    0.9020 hc        1 MOL      0.027940
     36 H16         3.7200    8.5340    0.7590 hx        1 MOL      0.074240
     37 H17         3.7500    7.0990    1.8010 hx        1 MOL      0.074240
     38 H18         2.7650    9.7870    2.6160 hn        1 MOL      0.334649
     39 H19         2.5040    8.3320    3.4500 hn        1 MOL      0.334649
     40 H20         3.9550    8.8840    3.2270 hn        1 MOL      0.334649
     41 N4         -2.1180    5.0710   -1.6920 n         1 MOL     -0.104624
     42 C13        -3.2850    4.8860   -2.4920 c3        1 MOL      0.023474
     43 C14        -4.5800    4.4980   -1.6780 c         1 MOL      0.388415
     44 O6         -5.6940    4.8090   -2.0870 o         1 MOL     -0.527930
     45 C15        -2.9790    3.7800   -3.4970 c3        1 MOL     -0.341901
     46 C16        -2.3270    2.5460   -2.8780 c         1 MOL      0.895731
     47 O7         -1.1170    2.6040   -2.4340 o         1 MOL     -0.744080
     48 O8         -2.9950    1.5050   -2.9070 o         1 MOL     -0.744080
     49 H21        -1.3320    4.4410   -1.7170 hn        1 MOL      0.120694
     50 H22        -3.5440    5.8330   -2.9700 h1        1 MOL      0.078436
     51 H23        -2.2720    4.1100   -4.2530 hc        1 MOL      0.082534
     52 H24        -3.8840    3.3490   -3.9200 hc        1 MOL      0.082534
     53 N5         -4.3830    3.9610   -0.4930 n         1 MOL      0.171095
     54 C17        -5.4210    3.7720    0.5100 c3        1 MOL     -0.214472
     55 C18        -6.3970    2.6450    0.2240 c         1 MOL      0.638971
     56 O9         -7.6040    2.8830    0.1580 o         1 MOL     -0.556537
     57 H25        -3.4460    3.7360   -0.1890 hn        1 MOL     -0.058134
     58 H26        -6.0190    4.6710    0.6390 h1        1 MOL      0.083820
     59 H27        -4.9040    3.4940    1.4290 h1        1 MOL      0.083820
     60 N6         -5.8080    1.4200   -0.0390 n         1 MOL     -0.402028
     61 C19        -6.5870    0.2730   -0.5790 c3        1 MOL      0.090603
     62 C20        -6.7570   -0.9450    0.3020 c         1 MOL      0.475488
     63 O10        -7.6240   -1.8000    0.0860 o         1 MOL     -0.573363
     64 C21        -5.9810   -0.1110   -1.9740 c3        1 MOL     -0.187042
     65 C22        -4.8010   -1.0420   -2.1080 c         1 MOL      0.632305
     66 N7         -4.9600   -2.0520   -2.9620 n         1 MOL     -0.858485
     67 O11        -3.7550   -0.9030   -1.5160 o         1 MOL     -0.482324
     68 H28        -4.8250    1.3770    0.1800 hn        1 MOL      0.040947
     69 H29        -7.6310    0.5840   -0.6440 h1        1 MOL      0.080446
     70 H30        -5.7300    0.7980   -2.5230 hc        1 MOL      0.077855
     71 H31        -6.7790   -0.6220   -2.5170 hc        1 MOL      0.077855
     72 H32        -5.8770   -2.3270   -3.3000 hn        1 MOL      0.389844
     73 H33        -4.1400   -2.5870   -3.1690 hn        1 MOL      0.389844
     74 N8         -5.8550   -1.0620    1.2850 n         1 MOL     -0.247301
     75 C23        -6.0530   -2.0120    2.3930 c3        1 MOL     -0.226124
     76 C24        -4.8730   -2.9950    2.5060 c         1 MOL      0.498379
     77 O12        -4.7990   -3.7330    3.4970 o         1 MOL     -0.551332
     78 H34        -5.1690   -0.3380    1.3940 hn        1 MOL      0.286082
     79 H35        -7.0210   -2.5310    2.4070 h1        1 MOL      0.136454
     80 H36        -6.0490   -1.3450    3.2560 h1        1 MOL      0.136454
     81 N9         -3.9490   -2.9870    1.4920 n         1 MOL     -0.224868
     82 C25        -2.6510   -3.7160    1.4160 c3        1 MOL      0.139378
     83 C26        -1.5030   -2.8570    1.0590 c         1 MOL      0.284380
     84 O13        -1.6070   -1.8160    0.3810 o         1 MOL     -0.488465
     85 C27        -2.7530   -4.6700    0.1720 c3        1 MOL      0.070014
     86 C28        -3.7800   -5.8290    0.2710 ca        1 MOL     -0.011285
     87 C29        -3.4260   -7.0690    0.8830 ca        1 MOL     -0.206384
     88 C30        -5.1100   -5.6910   -0.3100 ca        1 MOL     -0.206384
     89 C31        -4.3330   -8.1460    0.8680 ca        1 MOL     -0.146628
     90 C32        -5.9750   -6.7920   -0.2860 ca        1 MOL     -0.146628
     91 C33        -5.5710   -8.0530    0.2400 ca        1 MOL      0.231284
     92 O14        -6.3440   -9.1260    0.2280 oh        1 MOL     -0.462372
     93 H37        -4.0820   -2.2300    0.8370 hn        1 MOL      0.146220
     94 H38        -2.4590   -4.3760    2.2700 h1        1 MOL      0.052358
     95 H39        -1.7840   -5.1310   -0.0470 hc        1 MOL      0.003214
     96 H40        -3.2090   -4.0810   -0.6180 hc        1 MOL      0.003214
     97 H41        -2.4130   -7.2050    1.2430 ha        1 MOL      0.142867
     98 H42        -5.3670   -4.7640   -0.7990 ha        1 MOL      0.142867
     99 H43        -3.9740   -9.0980    1.2080 ha        1 MOL      0.113853
    100 H44        -6.9300   -6.7750   -0.7850 ha        1 MOL      0.113853
    101 H45        -7.2290   -8.8520   -0.0280 ho        1 MOL      0.371848
    102 N10        -0.3190   -3.3170    1.4240 n         1 MOL     -0.280840
    103 C34         1.0100   -2.7090    1.0300 c3        1 MOL      0.020098
    104 C35         2.0560   -3.7430    0.5070 c         1 MOL      0.420734
    105 O15         2.1840   -4.8800    0.9310 o         1 MOL     -0.520206
    106 C36         1.6540   -1.9460    2.2390 c3        1 MOL      0.008700
    107 C37         1.6440   -2.8500    3.5270 c3        1 MOL      0.030221
    108 C38         0.8560   -0.6410    2.4540 c3        1 MOL     -0.458935
    109 C39         2.5240   -2.2670    4.6690 c3        1 MOL     -0.295134
    110 H46        -0.3700   -4.1110    2.0520 hn        1 MOL      0.231212
    111 H47         0.8170   -1.9250    0.2960 h1        1 MOL      0.116766
    112 H48         2.6230   -1.6300    1.8510 hc        1 MOL      0.037719
    113 H49         1.9350   -3.8450    3.1970 hc        1 MOL      0.038250
    114 H50         0.6050   -2.8960    3.8450 hc        1 MOL      0.038250
    115 H51        -0.1520   -0.8660    2.8260 hc        1 MOL      0.140362
    116 H52         1.2540   -0.1070    3.3210 hc        1 MOL      0.140362
    117 H53         0.8080   -0.0120    1.5660 hc        1 MOL      0.140362
    118 H54         2.5140   -2.9490    5.5250 hc        1 MOL      0.072766
    119 H55         3.5870   -2.2940    4.4160 hc        1 MOL      0.072766
    120 H56         2.3590   -1.2280    4.9370 hc        1 MOL      0.072766
    121 N11         2.8570   -3.3000   -0.4840 n         1 MOL     -0.188358
    122 C40         4.0150   -4.0380   -0.9050 c3        1 MOL      0.073547
    123 C41         5.3170   -3.5080   -0.2270 c         1 MOL      0.463563
    124 O16         5.2850   -2.3770    0.3630 o         1 MOL     -0.471960
    125 C42         4.1330   -4.0160   -2.4490 c3        1 MOL     -0.289951
    126 O17         4.3810   -2.6590   -2.8650 oh        1 MOL     -0.396320
    127 H57         2.6130   -2.4870   -1.0140 hn        1 MOL      0.150211
    128 H58         3.9470   -5.1000   -0.7000 h1        1 MOL      0.049287
    129 H59         3.1930   -4.3250   -2.8970 h1        1 MOL      0.143709
    130 H60         4.9320   -4.6920   -2.7380 h1        1 MOL      0.143709
    131 H61         4.4440   -2.6770   -3.8210 ho        1 MOL      0.355444
    132 N12         6.4140   -4.2620   -0.3620 n         1 MOL     -0.427811
    133 C43         7.7170   -3.9100    0.1370 c3        1 MOL      0.108609
    134 C44         8.2400   -2.5530   -0.4660 c         1 MOL      0.380816
    135 O18         8.8270   -1.7450    0.2800 o         1 MOL     -0.501959
    136 C45         8.6820   -5.0180   -0.2790 c3        1 MOL     -0.220529
    137 H62         6.3330   -5.1540   -0.8350 hn        1 MOL      0.290405
    138 H63         7.5910   -3.8220    1.2170 h1        1 MOL      0.105053
    139 H64         8.7510   -5.0250   -1.3660 hc        1 MOL      0.069410
    140 H65         9.6260   -4.9340    0.2590 hc        1 MOL      0.069410
    141 H66         8.2290   -5.9680    0.0130 hc        1 MOL      0.069410
    142 N13         7.8870   -2.1800   -1.7100 n         1 MOL     -0.225418
    143 C46         8.1320   -0.9210   -2.3520 c3        1 MOL      0.014544
    144 C47         7.3810    0.2260   -1.6160 c         1 MOL      0.449838
    145 O19         7.9650    1.2770   -1.4670 o         1 MOL     -0.504170
    146 C48         7.6450   -0.9860   -3.8530 c3        1 MOL     -0.285792
    147 H67         7.5350   -2.9530   -2.2570 hn        1 MOL      0.211203
    148 H68         9.2090   -0.7980   -2.2570 h1        1 MOL      0.097324
    149 H69         8.1280   -1.8510   -4.3110 hc        1 MOL      0.080519
    150 H70         6.5880   -1.2100   -3.9370 hc        1 MOL      0.080519
    151 H71         7.9000   -0.0560   -4.3560 hc        1 MOL      0.080519
    152 N14         6.0990    0.0100   -1.1510 n         1 MOL     -0.102402
    153 C49         5.3710    1.0840   -0.3500 c3        1 MOL     -0.316755
    154 C50         5.8770    1.3820    1.0790 c         1 MOL      0.613389
    155 O20         5.8760    2.5390    1.4630 o         1 MOL     -0.562964
    156 C51         3.9520    0.6760   -0.0980 c3        1 MOL      0.204213
    157 C52         3.2550    0.3310   -1.3720 c3        1 MOL      0.082054
    158 C53         1.7410    0.0530   -1.2350 c         1 MOL      0.688202
    159 O21         1.1310   -0.9010   -1.7870 o         1 MOL     -0.719281
    160 O22         1.0210    0.8830   -0.6910 o         1 MOL     -0.719281
    161 H72         5.5910   -0.7700   -1.5370 hn        1 MOL      0.140742
    162 H73         5.2850    1.9770   -0.9580 h1        1 MOL      0.140170
    163 H74         3.4170    1.5010    0.3800 hc        1 MOL     -0.011174
    164 H75         3.8360   -0.1530    0.5970 hc        1 MOL     -0.011174
    165 H76         3.6100   -0.6520   -1.6770 hc        1 MOL     -0.068624
    166 H77         3.3780    1.1310   -2.1090 hc        1 MOL     -0.068624
    167 N15         6.4130    0.3070    1.7240 n         1 MOL     -0.195693
    168 C54         7.2030    0.4890    2.8900 c3        1 MOL     -0.476615
    169 H78         7.9730    1.2360    2.6940 h1        1 MOL      0.161399
    170 H79         6.5690    0.8280    3.7090 h1        1 MOL      0.161399
    171 H80         7.6740   -0.4550    3.1620 h1        1 MOL      0.161399
    172 H81         6.4390   -0.5670    1.2320 hn        1 MOL      0.219746
    173 Ca1        -1.3100    0.0310   -1.5070 Ca        1 MOL      1.667179
    174 O23        -0.4720    0.1730   -4.1240 oh        1 MOL     -0.842752
    175 H82        -0.5020    0.7860   -4.8650 ho        1 MOL      0.401246
    176 H83         0.2130   -0.4480   -4.3610 ho        1 MOL      0.401246
    177 O24        -1.0910   -2.2880   -2.6900 oh        1 MOL     -0.842752
    178 H84        -1.5840   -2.5860   -3.4520 ho        1 MOL      0.401246
    179 H85        -0.1740   -2.2800   -2.9740 ho        1 MOL      0.401246
@<TRIPOS>BOND
     1    1    2 1   
     2    1    4 1   
     3    1    5 1   
     4    1    6 1   
     5    2    3 2   
     6    2    7 1   
     7    7    8 1   
     8    7   15 1   
     9    8    9 1   
    10    8   11 1   
    11    8   16 1   
    12    9   10 2   
    13    9   19 1   
    14   11   12 1   
    15   11   17 1   
    16   11   18 1   
    17   12   13 1   
    18   12   14 1   
    19   19   20 1   
    20   19   28 1   
    21   20   21 1   
    22   20   23 1   
    23   20   29 1   
    24   21   22 2   
    25   21   41 1   
    26   23   24 1   
    27   23   30 1   
    28   23   31 1   
    29   24   25 1   
    30   24   32 1   
    31   24   33 1   
    32   25   26 1   
    33   25   34 1   
    34   25   35 1   
    35   26   27 1   
    36   26   36 1   
    37   26   37 1   
    38   27   38 1   
    39   27   39 1   
    40   27   40 1   
    41   41   42 1   
    42   41   49 1   
    43   42   43 1   
    44   42   45 1   
    45   42   50 1   
    46   43   44 2   
    47   43   53 1   
    48   45   46 1   
    49   45   51 1   
    50   45   52 1   
    51   46   47 1   
    52   46   48 1   
    53   53   54 1   
    54   53   57 1   
    55   54   55 1   
    56   54   58 1   
    57   54   59 1   
    58   55   56 2   
    59   55   60 1   
    60   60   61 1   
    61   60   68 1   
    62   61   62 1   
    63   61   64 1   
    64   61   69 1   
    65   62   63 2   
    66   62   74 1   
    67   64   65 1   
    68   64   70 1   
    69   64   71 1   
    70   65   66 1   
    71   65   67 2   
    72   66   72 1   
    73   66   73 1   
    74   74   75 1   
    75   74   78 1   
    76   75   76 1   
    77   75   79 1   
    78   75   80 1   
    79   76   77 2   
    80   76   81 1   
    81   81   82 1   
    82   81   93 1   
    83   82   83 1   
    84   82   85 1   
    85   82   94 1   
    86   83   84 2   
    87   83  102 1   
    88   85   86 1   
    89   85   95 1   
    90   85   96 1   
    91   86   87 ar  
    92   86   88 ar  
    93   87   89 ar  
    94   87   97 1   
    95   88   90 ar  
    96   88   98 1   
    97   89   91 ar  
    98   89   99 1   
    99   90   91 ar  
   100   90  100 1   
   101   91   92 1   
   102   92  101 1   
   103  102  103 1   
   104  102  110 1   
   105  103  104 1   
   106  103  106 1   
   107  103  111 1   
   108  104  105 2   
   109  104  121 1   
   110  106  107 1   
   111  106  108 1   
   112  106  112 1   
   113  107  109 1   
   114  107  113 1   
   115  107  114 1   
   116  108  115 1   
   117  108  116 1   
   118  108  117 1   
   119  109  118 1   
   120  109  119 1   
   121  109  120 1   
   122  121  122 1   
   123  121  127 1   
   124  122  123 1   
   125  122  125 1   
   126  122  128 1   
   127  123  124 2   
   128  123  132 1   
   129  125  126 1   
   130  125  129 1   
   131  125  130 1   
   132  126  131 1   
   133  132  133 1   
   134  132  137 1   
   135  133  134 1   
   136  133  136 1   
   137  133  138 1   
   138  134  135 2   
   139  134  142 1   
   140  136  139 1   
   141  136  140 1   
   142  136  141 1   
   143  142  143 1   
   144  142  147 1   
   145  143  144 1   
   146  143  146 1   
   147  143  148 1   
   148  144  145 2   
   149  144  152 1   
   150  146  149 1   
   151  146  150 1   
   152  146  151 1   
   153  152  153 1   
   154  152  161 1   
   155  153  154 1   
   156  153  156 1   
   157  153  162 1   
   158  154  155 2   
   159  154  167 1   
   160  156  157 1   
   161  156  163 1   
   162  156  164 1   
   163  157  158 1   
   164  157  165 1   
   165  157  166 1   
   166  158  159 1   
   167  158  160 1   
   168  167  168 1   
   169  167  172 1   
   170  168  169 1   
   171  168  170 1   
   172  168  171 1   
   173  174  175 1   
   174  174  176 1   
   175  177  178 1   
   176  177  179 1   
@<TRIPOS>SUBSTRUCTURE
     1 MOL         1 TEMP              0 ****  ****    0 ROOT
