@<TRIPOS>MOLECULE
MOL
  172   171     1     0     0
SMALL
resp


@<TRIPOS>ATOM
      1 C1          0.0950   -2.8890    6.1410 c3        1 MOL     -0.362412
      2 C2          0.6870   -2.7130    4.6740 c         1 MOL      0.698358
      3 O1          0.1660   -3.3820    3.8070 o         1 MOL     -0.531361
      4 H1         -0.1040   -3.9450    6.3280 hc        1 MOL      0.084076
      5 H2          0.8160   -2.5210    6.8710 hc        1 MOL      0.084076
      6 H3         -0.8330   -2.3240    6.2290 hc        1 MOL      0.084076
      7 N1          1.7270   -1.8480    4.4690 n         1 MOL     -0.582199
      8 C3          2.3580   -1.7300    3.1580 c3        1 MOL      0.032506
      9 C4          2.9290   -3.1010    2.7790 c         1 MOL      0.602570
     10 O2          3.7660   -3.6800    3.4160 o         1 MOL     -0.607203
     11 C5          3.3860   -0.5610    3.0730 c3        1 MOL     -0.168114
     12 C6          3.9520   -0.4680    1.7110 c         1 MOL      0.676492
     13 O3          5.1080   -0.8440    1.5320 o         1 MOL     -0.655712
     14 O4          3.2770    0.1130    0.8330 o         1 MOL     -0.655712
     15 H4          1.9290   -1.1930    5.2100 hn        1 MOL      0.315990
     16 H5          1.5990   -1.4610    2.4170 h1        1 MOL      0.072816
     17 H6          4.1710   -0.7060    3.8230 hc        1 MOL      0.045009
     18 H7          2.9530    0.4120    3.2950 hc        1 MOL      0.045009
     19 N2          2.5570   -3.6750    1.6200 n         1 MOL     -0.341455
     20 C7          2.8140   -4.9870    1.1790 c3        1 MOL      0.286259
     21 C8          3.5520   -5.0670   -0.1540 c         1 MOL      0.236964
     22 O5          4.1140   -6.0940   -0.4710 o         1 MOL     -0.568656
     23 C9          1.5250   -5.7270    1.1530 c3        1 MOL     -0.226393
     24 H8          1.9700   -3.1350    1.0090 hn        1 MOL      0.258369
     25 H9          3.3290   -5.5520    1.9590 h1        1 MOL      0.034862
     26 H10         1.8000   -6.7800    1.1110 hc        1 MOL      0.047587
     27 H11         0.9340   -5.5220    2.0530 hc        1 MOL      0.047587
     28 H12         1.0660   -5.3690    0.2290 hc        1 MOL      0.047587
     29 N3          3.6460   -4.0360   -0.9590 n         1 MOL      0.123706
     30 C10         4.3070   -4.0970   -2.2620 c3        1 MOL     -0.146374
     31 C11         5.7600   -3.5860   -2.1940 c         1 MOL      0.449054
     32 O6          6.5010   -3.6570   -3.2120 o         1 MOL     -0.532986
     33 C12         3.4970   -3.2600   -3.3400 c3        1 MOL     -0.248774
     34 C13         3.2020   -1.8740   -2.8250 c         1 MOL      0.888340
     35 O7          2.4870   -1.1250   -3.4740 o         1 MOL     -0.790659
     36 O8          3.6890   -1.3470   -1.7800 o         1 MOL     -0.790659
     37 H13         3.3880   -3.1160   -0.6160 hn        1 MOL     -0.072090
     38 H14         4.2710   -5.1260   -2.6110 h1        1 MOL      0.133185
     39 H15         2.5780   -3.7460   -3.6730 hc        1 MOL      0.078836
     40 H16         4.1580   -3.1490   -4.1990 hc        1 MOL      0.078836
     41 N4          6.1950   -2.9810   -1.0320 n         1 MOL     -0.295121
     42 C14         7.5290   -2.3890   -0.8390 c3        1 MOL     -0.066442
     43 C15         7.7440   -0.8890   -0.8960 c         1 MOL      0.598959
     44 O9          8.8830   -0.4750   -1.1280 o         1 MOL     -0.643115
     45 H17         5.4920   -2.6700   -0.3790 hn        1 MOL      0.231426
     46 H18         8.2350   -2.9310   -1.4810 h1        1 MOL      0.063886
     47 H19         7.7470   -2.5670    0.2130 h1        1 MOL      0.063886
     48 N5          6.7620   -0.0270   -0.9110 n         1 MOL     -0.302370
     49 C16         6.9170    1.4740   -1.2170 c3        1 MOL      0.005481
     50 C17         6.3950    2.4980   -0.1290 c         1 MOL      0.439550
     51 O10         6.4820    3.6800   -0.3170 o         1 MOL     -0.509125
     52 C18         6.4000    1.8320   -2.6020 c3        1 MOL     -0.124171
     53 C19         4.8710    1.9550   -2.6790 c         1 MOL      0.471359
     54 N6          4.3870    2.4980   -3.7810 n         1 MOL     -0.623853
     55 O11         4.0340    1.7000   -1.7860 o         1 MOL     -0.449336
     56 H20         5.8250   -0.4120   -0.9340 hn        1 MOL      0.277963
     57 H21         7.9670    1.7500   -1.1570 h1        1 MOL      0.105856
     58 H22         6.8370    1.2260   -3.3930 hc        1 MOL      0.062283
     59 H23         6.7400    2.8510   -2.7790 hc        1 MOL      0.062283
     60 H24         5.0020    2.5130   -4.5790 hn        1 MOL      0.306865
     61 H25         3.4020    2.6670   -3.8710 hn        1 MOL      0.306865
     62 N7          5.9430    1.9700    0.9980 n         1 MOL     -0.278405
     63 C20         5.6270    2.8740    2.1670 c3        1 MOL     -0.105422
     64 C21         4.5030    3.8860    1.9990 c         1 MOL      0.477619
     65 O12         4.5030    4.9080    2.6960 o         1 MOL     -0.600465
     66 H26         5.8330    0.9620    1.0800 hn        1 MOL      0.174118
     67 H27         6.5030    3.4320    2.4830 h1        1 MOL      0.099640
     68 H28         5.3440    2.2520    3.0130 h1        1 MOL      0.099640
     69 N8          3.5210    3.6780    1.1250 n         1 MOL     -0.143603
     70 C22         2.3460    4.6140    0.8360 c3        1 MOL     -0.178267
     71 C23         1.1310    3.6490    0.7180 c         1 MOL      0.579395
     72 O13         1.3200    2.5890    0.0710 o         1 MOL     -0.653514
     73 C24         2.6590    5.3960   -0.4460 c3        1 MOL      0.307683
     74 C25         1.4560    6.2400   -0.9460 c3        1 MOL     -0.418794
     75 O14         3.8250    6.2330   -0.3540 oh        1 MOL     -0.585304
     76 H29         3.5230    2.7770    0.6940 hn        1 MOL      0.106443
     77 H30         2.1530    5.2260    1.7250 h1        1 MOL      0.090253
     78 H31         2.9360    4.6970   -1.2480 h1        1 MOL      0.130410
     79 H32         3.6810    6.6650    0.4930 ho        1 MOL      0.386437
     80 H33         1.3320    7.1300   -0.3270 hc        1 MOL      0.097694
     81 H34         1.6050    6.5860   -1.9610 hc        1 MOL      0.097694
     82 H35         0.5250    5.6820   -0.9880 hc        1 MOL      0.097694
     83 N9          0.0460    3.8930    1.3700 n         1 MOL     -0.321256
     84 C26        -1.1200    3.0540    1.3410 c3        1 MOL     -0.162381
     85 C27        -1.9160    3.1810    0.0430 c         1 MOL      0.566428
     86 O15        -2.6290    4.1790   -0.2210 o         1 MOL     -0.586245
     87 C28        -2.0690    3.4700    2.4890 c3        1 MOL      0.096363
     88 C29        -1.3810    3.1670    3.8180 c3        1 MOL      0.103784
     89 C30        -3.4490    2.8470    2.4550 c3        1 MOL      0.009405
     90 C31        -2.1210    3.5800    5.2020 c3        1 MOL     -0.256460
     91 H36        -0.0720    4.8510    1.6690 hn        1 MOL      0.263641
     92 H37        -0.8010    2.0100    1.4060 h1        1 MOL      0.146848
     93 H38        -2.2460    4.5390    2.4140 hc        1 MOL     -0.016367
     94 H39        -0.4160    3.6650    3.7870 hc        1 MOL     -0.014057
     95 H40        -1.2550    2.0840    3.8930 hc        1 MOL     -0.014057
     96 H41        -4.1160    3.2410    1.6920 hc        1 MOL     -0.019297
     97 H42        -3.4060    1.7620    2.4000 hc        1 MOL     -0.019297
     98 H43        -3.9330    3.0950    3.4030 hc        1 MOL     -0.019297
     99 H44        -2.9930    2.9560    5.3880 hc        1 MOL      0.057836
    100 H45        -1.3690    3.4010    5.9690 hc        1 MOL      0.057836
    101 H46        -2.4450    4.6190    5.1070 hc        1 MOL      0.057836
    102 N10        -1.9460    2.1360   -0.7920 n         1 MOL     -0.232889
    103 C32        -2.9800    1.7920   -1.7350 c3        1 MOL     -0.187701
    104 C33        -4.3040    1.3940   -1.0970 c         1 MOL      0.571843
    105 O16        -4.2820    0.7930   -0.0070 o         1 MOL     -0.202558
    106 C34        -2.5300    0.6350   -2.6300 c3        1 MOL     -0.311801
    107 C35        -1.1100    0.7440   -3.2040 c         1 MOL      0.849591
    108 O17        -0.9140    1.3810   -4.2020 o         1 MOL     -0.696969
    109 O18        -0.2120   -0.0560   -2.7520 o         1 MOL     -0.696969
    110 H47        -1.2180    1.4400   -0.6770 hn        1 MOL      0.152901
    111 H48        -3.1990    2.6750   -2.3370 h1        1 MOL      0.099551
    112 H49        -3.1990    0.4860   -3.4790 hc        1 MOL      0.105996
    113 H50        -2.5630   -0.2000   -1.9290 hc        1 MOL      0.105996
    114 N11        -5.4720    1.5200   -1.7820 n         1 MOL     -0.687188
    115 C36        -6.6770    0.8820   -1.2840 c3        1 MOL      0.325051
    116 C37        -6.5400   -0.5750   -0.7580 c         1 MOL      0.248863
    117 O19        -6.9540   -0.8950    0.3780 o         1 MOL     -0.495721
    118 C38        -7.7980    1.2140   -2.2910 c3        1 MOL     -0.326086
    119 C39        -9.1540    0.8000   -1.7410 ca        1 MOL      0.251460
    120 C40        -9.8120   -0.3820   -2.1890 ca        1 MOL     -0.314460
    121 C41        -9.8360    1.6920   -0.8400 ca        1 MOL     -0.314460
    122 C42       -11.1070   -0.6430   -1.6590 ca        1 MOL      0.052149
    123 C43       -11.0620    1.3520   -0.3410 ca        1 MOL      0.052149
    124 C44       -11.7290    0.2670   -0.8120 ca        1 MOL     -0.261411
    125 H51        -5.5340    2.0240   -2.6580 hn        1 MOL      0.357016
    126 H52        -6.9670    1.4530   -0.3970 h1        1 MOL      0.058410
    127 H53        -7.6120    0.8720   -3.3040 hc        1 MOL      0.101485
    128 H54        -7.8880    2.2750   -2.5350 hc        1 MOL      0.101485
    129 H55        -9.4710   -1.0540   -2.9640 ha        1 MOL      0.153878
    130 H56        -9.3290    2.5710   -0.4690 ha        1 MOL      0.153878
    131 H57       -11.7360   -1.4040   -2.0940 ha        1 MOL      0.071707
    132 H58       -11.5610    1.9660    0.3860 ha        1 MOL      0.071707
    133 H59       -12.6890    0.0520   -0.3700 ha        1 MOL      0.125319
    134 N12        -6.0300   -1.5620   -1.5060 n         1 MOL      0.032648
    135 C45        -5.8260   -2.9990   -1.0790 c3        1 MOL      0.115343
    136 C46        -4.8100   -3.1420    0.1340 c         1 MOL      0.318556
    137 O20        -4.2950   -4.2680    0.3490 o         1 MOL     -0.537933
    138 C47        -5.4460   -3.7410   -2.3620 c3        1 MOL     -0.167948
    139 C48        -5.9900   -2.8480   -3.4340 c3        1 MOL      0.007838
    140 C49        -5.8420   -1.4620   -2.9020 c3        1 MOL      0.025312
    141 H60        -6.7990   -3.4050   -0.8100 h1        1 MOL      0.036924
    142 H61        -4.3580   -3.7380   -2.4320 hc        1 MOL      0.086698
    143 H62        -5.7610   -4.7840   -2.3640 hc        1 MOL      0.086698
    144 H63        -5.4700   -3.0290   -4.3730 hc        1 MOL      0.000096
    145 H64        -7.0720   -2.9580   -3.5210 hc        1 MOL      0.000096
    146 H65        -4.8180   -1.1550   -3.1220 h1        1 MOL      0.013251
    147 H66        -6.5580   -0.8440   -3.4350 h1        1 MOL      0.013251
    148 N13        -4.4900   -2.0180    0.7890 n         1 MOL      0.012446
    149 C50        -3.7040   -1.9340    2.0530 c3        1 MOL     -0.025085
    150 C51        -4.4150   -1.0930    3.1290 c         1 MOL      0.375221
    151 O21        -4.4300   -1.4490    4.2900 o         1 MOL     -0.529219
    152 C52        -2.2810   -1.4190    1.6310 c3        1 MOL      0.212226
    153 C53        -1.4340   -2.2060    0.5870 c3        1 MOL     -0.018527
    154 C54        -0.1950   -1.3700    0.2550 c         1 MOL      0.480539
    155 O22         0.8430   -1.9450   -0.2190 o         1 MOL     -0.677976
    156 O23        -0.2230   -0.0990    0.1960 o         1 MOL     -0.677976
    157 H67        -4.8370   -1.1310    0.4530 hn        1 MOL     -0.210993
    158 H68        -3.4650   -2.9060    2.5000 h1        1 MOL      0.075777
    159 H69        -1.7270   -1.3750    2.5670 hc        1 MOL     -0.049254
    160 H70        -2.4400   -0.4090    1.2620 hc        1 MOL     -0.049254
    161 H71        -2.1310   -2.4520   -0.2130 hc        1 MOL      0.021878
    162 H72        -1.1230   -3.1170    1.1030 hc        1 MOL      0.021878
    163 N14        -5.1320   -0.0770    2.6070 n         1 MOL      0.050066
    164 C55        -6.1800    0.5760    3.3610 c3        1 MOL     -0.181817
    165 H73        -6.1060    0.2870    4.4100 h1        1 MOL      0.062617
    166 H74        -6.0710    1.6570    3.2750 h1        1 MOL      0.062617
    167 H75        -7.1520    0.2760    2.9700 h1        1 MOL      0.062617
    168 H76        -5.1000    0.1930    1.6390 hn        1 MOL      0.079252
    169 Ca1         1.8950    0.3630   -1.2920 Ca        1 MOL      1.794668
    170 O24         1.5620    2.3360   -3.1370 oh        1 MOL     -0.878221
    171 H77         1.7150    3.1460   -3.6190 ho        1 MOL      0.403370
    172 H78         0.7620    1.9850   -3.5080 ho        1 MOL      0.403370
@<TRIPOS>BOND
     1    1    2 1   
     2    1    4 1   
     3    1    5 1   
     4    1    6 1   
     5    2    3 2   
     6    2    7 1   
     7    7    8 1   
     8    7   15 1   
     9    8    9 1   
    10    8   11 1   
    11    8   16 1   
    12    9   10 2   
    13    9   19 1   
    14   11   12 1   
    15   11   17 1   
    16   11   18 1   
    17   12   13 1   
    18   12   14 1   
    19   19   20 1   
    20   19   24 1   
    21   20   21 1   
    22   20   23 1   
    23   20   25 1   
    24   21   22 2   
    25   21   29 1   
    26   23   26 1   
    27   23   27 1   
    28   23   28 1   
    29   29   30 1   
    30   29   37 1   
    31   30   31 1   
    32   30   33 1   
    33   30   38 1   
    34   31   32 2   
    35   31   41 1   
    36   33   34 1   
    37   33   39 1   
    38   33   40 1   
    39   34   35 1   
    40   34   36 1   
    41   41   42 1   
    42   41   45 1   
    43   42   43 1   
    44   42   46 1   
    45   42   47 1   
    46   43   44 2   
    47   43   48 1   
    48   48   49 1   
    49   48   56 1   
    50   49   50 1   
    51   49   52 1   
    52   49   57 1   
    53   50   51 2   
    54   50   62 1   
    55   52   53 1   
    56   52   58 1   
    57   52   59 1   
    58   53   54 1   
    59   53   55 2   
    60   54   60 1   
    61   54   61 1   
    62   62   63 1   
    63   62   66 1   
    64   63   64 1   
    65   63   67 1   
    66   63   68 1   
    67   64   65 2   
    68   64   69 1   
    69   69   70 1   
    70   69   76 1   
    71   70   71 1   
    72   70   73 1   
    73   70   77 1   
    74   71   72 2   
    75   71   83 1   
    76   73   74 1   
    77   73   75 1   
    78   73   78 1   
    79   74   80 1   
    80   74   81 1   
    81   74   82 1   
    82   75   79 1   
    83   83   84 1   
    84   83   91 1   
    85   84   85 1   
    86   84   87 1   
    87   84   92 1   
    88   85   86 2   
    89   85  102 1   
    90   87   88 1   
    91   87   89 1   
    92   87   93 1   
    93   88   90 1   
    94   88   94 1   
    95   88   95 1   
    96   89   96 1   
    97   89   97 1   
    98   89   98 1   
    99   90   99 1   
   100   90  100 1   
   101   90  101 1   
   102  102  103 1   
   103  102  110 1   
   104  103  104 1   
   105  103  106 1   
   106  103  111 1   
   107  104  105 2   
   108  104  114 1   
   109  106  107 1   
   110  106  112 1   
   111  106  113 1   
   112  107  108 1   
   113  107  109 1   
   114  114  115 1   
   115  114  125 1   
   116  115  116 1   
   117  115  118 1   
   118  115  126 1   
   119  116  117 2   
   120  116  134 1   
   121  118  119 1   
   122  118  127 1   
   123  118  128 1   
   124  119  120 ar  
   125  119  121 ar  
   126  120  122 ar  
   127  120  129 1   
   128  121  123 ar  
   129  121  130 1   
   130  122  124 ar  
   131  122  131 1   
   132  123  124 ar  
   133  123  132 1   
   134  124  133 1   
   135  134  135 1   
   136  134  140 1   
   137  135  136 1   
   138  135  138 1   
   139  135  141 1   
   140  136  137 2   
   141  136  148 1   
   142  138  139 1   
   143  138  142 1   
   144  138  143 1   
   145  139  140 1   
   146  139  144 1   
   147  139  145 1   
   148  140  146 1   
   149  140  147 1   
   150  148  149 1   
   151  148  157 1   
   152  149  150 1   
   153  149  152 1   
   154  149  158 1   
   155  150  151 2   
   156  150  163 1   
   157  152  153 1   
   158  152  159 1   
   159  152  160 1   
   160  153  154 1   
   161  153  161 1   
   162  153  162 1   
   163  154  155 1   
   164  154  156 1   
   165  163  164 1   
   166  163  168 1   
   167  164  165 1   
   168  164  166 1   
   169  164  167 1   
   170  170  171 1   
   171  170  172 1   
@<TRIPOS>SUBSTRUCTURE
     1 MOL         1 TEMP              0 ****  ****    0 ROOT
