@<TRIPOS>MOLECULE
MOL
  186   183     1     0     0
SMALL
resp


@<TRIPOS>ATOM
      1 C1          0.6320   -2.1320    6.0730 c3        1 MOL     -0.404649
      2 C2          1.0280   -1.9100    4.5940 c         1 MOL      0.805279
      3 O1          0.2490   -2.1880    3.6830 o         1 MOL     -0.585958
      4 H1          0.7010   -3.1940    6.3110 hc        1 MOL      0.100063
      5 H2          1.3080   -1.5710    6.7180 hc        1 MOL      0.100063
      6 H3         -0.3900   -1.7900    6.2310 hc        1 MOL      0.100063
      7 N1          2.2780   -1.4720    4.2570 n         1 MOL     -0.728563
      8 C3          2.7860   -1.5060    2.8920 c3        1 MOL      0.426836
      9 C4          3.2450   -3.0040    2.7430 c         1 MOL      0.425416
     10 O2          3.8440   -3.5740    3.6450 o         1 MOL     -0.587687
     11 C5          3.9720   -0.5730    2.6130 c3        1 MOL     -0.242260
     12 C6          4.5500   -0.6130    1.1740 c         1 MOL      0.413925
     13 O3          5.7210   -0.2750    0.9750 o         1 MOL     -0.480212
     14 O4          3.9710   -1.1470    0.2390 o         1 MOL     -0.480212
     15 H4          2.9480   -1.3230    5.0060 hn        1 MOL      0.319713
     16 H5          2.0040   -1.4020    2.1410 h1        1 MOL     -0.097278
     17 H6          4.8190   -0.5930    3.3010 hc        1 MOL      0.073144
     18 H7          3.5690    0.4260    2.7680 hc        1 MOL      0.073144
     19 N2          2.9420   -3.5830    1.5740 n         1 MOL     -0.130935
     20 C7          3.0830   -4.9960    1.3090 c3        1 MOL     -0.186416
     21 C8          3.7470   -5.1740   -0.0320 c         1 MOL      0.537783
     22 O5          3.8050   -6.2500   -0.5600 o         1 MOL     -0.571114
     23 C9          1.7310   -5.7950    1.5060 c3        1 MOL      0.330980
     24 C10         0.6550   -5.3220    0.4490 c3        1 MOL     -0.144539
     25 C11         1.2580   -5.6350    2.9650 c3        1 MOL     -0.117623
     26 C12        -0.6770   -5.9530    0.5900 c3        1 MOL     -0.527645
     27 H8          2.4650   -2.9950    0.9030 hn        1 MOL      0.194705
     28 H9          3.7530   -5.3660    2.0740 h1        1 MOL      0.083055
     29 H10         2.0560   -6.8310    1.3970 hc        1 MOL     -0.077268
     30 H11         1.1090   -5.5490   -0.5170 hc        1 MOL      0.125475
     31 H12         0.4950   -4.2430    0.4870 hc        1 MOL      0.125475
     32 H13         0.5730   -6.4420    3.2320 hc        1 MOL      0.015290
     33 H14         2.0760   -5.8130    3.6700 hc        1 MOL      0.015290
     34 H15         0.8910   -4.6170    3.0520 hc        1 MOL      0.015290
     35 H16        -1.1890   -5.3350    1.3180 hc        1 MOL      0.134580
     36 H17        -1.0600   -5.8590   -0.4190 hc        1 MOL      0.134580
     37 H18        -0.5390   -7.0120    0.8400 hc        1 MOL      0.134580
     38 N3          4.2540   -4.0670   -0.6050 n         1 MOL     -0.466506
     39 C13         4.9910   -4.2030   -1.8480 c3        1 MOL      0.080123
     40 C14         6.2650   -3.3690   -1.9800 c         1 MOL      0.496425
     41 O6          6.9990   -3.5540   -2.8970 o         1 MOL     -0.527998
     42 C15         4.1040   -4.1170   -3.0680 c3        1 MOL     -0.085814
     43 C16         3.4920   -2.7490   -3.3770 c         1 MOL      0.692425
     44 O7          2.7950   -2.6310   -4.4390 o         1 MOL     -0.715195
     45 O8          3.6350   -1.7330   -2.6110 o         1 MOL     -0.715195
     46 H19         4.1730   -3.1450   -0.1930 hn        1 MOL      0.216794
     47 H20         5.4510   -5.1950   -1.8510 h1        1 MOL      0.056284
     48 H21         3.3480   -4.8880   -3.2050 hc        1 MOL      0.011232
     49 H22         4.8080   -4.3930   -3.8560 hc        1 MOL      0.011232
     50 N4          6.6050   -2.6170   -0.9330 n         1 MOL     -0.333238
     51 C17         7.9050   -1.9970   -0.8130 c3        1 MOL      0.019312
     52 C18         8.1000   -0.6010   -1.4850 c         1 MOL      0.477261
     53 O9          9.1710   -0.3940   -2.0810 o         1 MOL     -0.606491
     54 H23         5.9630   -2.6140   -0.1530 hn        1 MOL      0.234598
     55 H24         8.6380   -2.6940   -1.2150 h1        1 MOL      0.032133
     56 H25         8.1430   -1.8860    0.2400 h1        1 MOL      0.032133
     57 N5          7.1450    0.3060   -1.3890 n         1 MOL     -0.016325
     58 C19         7.2580    1.6750   -1.9740 c3        1 MOL     -0.038272
     59 C20         7.2790    2.7090   -0.7890 c         1 MOL      0.302092
     60 O10         7.4050    3.9580   -0.9280 o         1 MOL     -0.526436
     61 C21         6.1070    1.9810   -2.9960 c3        1 MOL     -0.075811
     62 C22         4.7190    1.5850   -2.5220 c         1 MOL      0.556498
     63 O11         4.3120    1.9080   -1.3720 o         1 MOL     -0.669278
     64 O12         3.9370    0.9860   -3.2250 o         1 MOL     -0.669278
     65 H26         6.3520    0.0910   -0.8140 hn        1 MOL      0.018081
     66 H27         8.1600    1.7170   -2.5890 h1        1 MOL      0.096055
     67 H28         6.3430    1.4670   -3.9280 hc        1 MOL      0.042105
     68 H29         6.1020    3.0450   -3.2500 hc        1 MOL      0.042105
     69 N6          6.9300    2.2460    0.4700 n         1 MOL     -0.103938
     70 C23         6.7230    3.0230    1.6590 c3        1 MOL     -0.248045
     71 C24         5.4690    3.9130    1.8000 c         1 MOL      0.538537
     72 O13         5.4470    4.7320    2.7000 o         1 MOL     -0.591213
     73 H30         6.7860    1.2510    0.4970 hn        1 MOL      0.057191
     74 H31         7.5530    3.7060    1.8240 h1        1 MOL      0.115901
     75 H32         6.6410    2.3460    2.5160 h1        1 MOL      0.115901
     76 N7          4.4200    3.6110    1.0300 n         1 MOL     -0.270443
     77 C25         3.0170    4.2090    1.1200 c3        1 MOL     -0.029934
     78 C26         1.9930    3.0360    1.2400 c         1 MOL      0.600804
     79 O14         2.2380    1.8810    0.8010 o         1 MOL     -0.687944
     80 C27         2.7010    5.2340    0.0490 c3        1 MOL      0.142594
     81 C28         3.5210    6.5460    0.1980 c3        1 MOL     -0.251824
     82 C29         3.0680    7.4720   -0.8260 c         1 MOL      0.687455
     83 N8          3.4800    7.4070   -2.0710 n         1 MOL     -0.865034
     84 O15         2.2570    8.3410   -0.5540 o         1 MOL     -0.599558
     85 H33         4.4040    2.7980    0.4320 hn        1 MOL      0.301775
     86 H34         3.0810    4.8720    1.9860 h1        1 MOL      0.067319
     87 H35         1.6630    5.5650    0.1550 hc        1 MOL     -0.026753
     88 H36         2.9800    4.6560   -0.8310 hc        1 MOL     -0.026753
     89 H37         4.5590    6.2790   -0.0110 hc        1 MOL      0.081435
     90 H38         3.3970    6.9360    1.2140 hc        1 MOL      0.081435
     91 H39         4.1090    6.6560   -2.3110 hn        1 MOL      0.390217
     92 H40         3.1810    8.1090   -2.7250 hn        1 MOL      0.390217
     93 N9          0.8270    3.3620    1.7670 n         1 MOL     -0.590301
     94 C30        -0.2710    2.4760    2.0710 c3        1 MOL      0.096689
     95 C31        -1.5000    2.8830    1.2870 c         1 MOL      0.410379
     96 O16        -2.2100    3.8090    1.6620 o         1 MOL     -0.551497
     97 C32        -0.5410    2.5410    3.5740 c3        1 MOL      0.170313
     98 C33        -1.6220    1.5430    4.0190 c3        1 MOL     -0.103529
     99 C34         0.7890    2.2470    4.2370 c3        1 MOL     -0.103529
    100 H41         0.6580    4.3580    1.7880 hn        1 MOL      0.321727
    101 H42        -0.0360    1.4700    1.7330 h1        1 MOL      0.234909
    102 H43        -0.8960    3.5150    3.9040 hc        1 MOL     -0.015924
    103 H44        -1.4170    0.5310    3.6770 hc        1 MOL      0.003221
    104 H45        -1.7760    1.5590    5.0940 hc        1 MOL      0.003221
    105 H46        -2.5870    1.8490    3.6040 hc        1 MOL      0.003221
    106 H47         0.6440    1.9710    5.2840 hc        1 MOL      0.003221
    107 H48         1.2050    1.3600    3.7730 hc        1 MOL      0.003221
    108 H49         1.4960    3.0830    4.2300 hc        1 MOL      0.003221
    109 N10        -1.8210    2.1670    0.2150 n         1 MOL     -0.208620
    110 C35        -3.0090    2.4090   -0.5750 c3        1 MOL      0.006869
    111 C36        -4.2830    2.0180    0.1830 c         1 MOL      0.258026
    112 O17        -4.2910    1.3910    1.2080 o         1 MOL     -0.276418
    113 C37        -2.8400    1.4730   -1.8070 c3        1 MOL     -0.032900
    114 C38        -3.8950    1.6870   -2.9060 c         1 MOL      0.547367
    115 N11        -3.7080    2.7870   -3.5930 n         1 MOL     -0.719356
    116 O18        -4.9140    0.9590   -3.0760 o         1 MOL     -0.456767
    117 H50        -1.1510    1.4660   -0.0840 hn        1 MOL      0.226085
    118 H51        -3.0270    3.3940   -1.0400 h1        1 MOL      0.038121
    119 H52        -2.9620    0.4830   -1.3770 hc        1 MOL      0.026777
    120 H53        -1.8520    1.5070   -2.2440 hc        1 MOL      0.026777
    121 H54        -2.8250    3.2790   -3.5680 hn        1 MOL      0.346552
    122 H55        -4.4570    3.2380   -4.0900 hn        1 MOL      0.346552
    123 N12        -5.4170    2.4490   -0.3960 n         1 MOL     -0.252406
    124 C39        -6.7760    1.9720   -0.1300 c3        1 MOL      0.098705
    125 C40        -6.8650    0.4170   -0.1070 c         1 MOL      0.601581
    126 O19        -7.4010   -0.1160    0.9030 o         1 MOL     -0.572521
    127 C41        -7.7780    2.5880   -1.0290 c3        1 MOL     -0.186924
    128 C42        -9.2120    2.0930   -0.6270 ca        1 MOL      0.029728
    129 C43        -9.8070    2.7470    0.5230 ca        1 MOL     -0.214184
    130 C44        -9.9090    1.0720   -1.3110 ca        1 MOL     -0.214184
    131 C45       -11.0550    2.3070    0.9820 ca        1 MOL     -0.185947
    132 C46       -11.2090    0.7550   -0.8950 ca        1 MOL     -0.185947
    133 C47       -11.7940    1.4110    0.2530 ca        1 MOL      0.306170
    134 O20       -13.1000    1.1990    0.5270 oh        1 MOL     -0.537058
    135 H56        -5.3310    3.2730   -0.9700 hn        1 MOL      0.209988
    136 H57        -7.0160    2.3090    0.8770 h1        1 MOL      0.026122
    137 H58        -7.6420    2.2310   -2.0570 hc        1 MOL      0.067151
    138 H59        -7.7610    3.6680   -0.9320 hc        1 MOL      0.067151
    139 H60        -9.2720    3.5280    1.0360 ha        1 MOL      0.164091
    140 H61        -9.5540    0.6830   -2.2570 ha        1 MOL      0.164091
    141 H62       -11.4950    2.7520    1.8620 ha        1 MOL      0.123964
    142 H63       -11.8100    0.0550   -1.4580 ha        1 MOL      0.123964
    143 H64       -13.4450    0.5060   -0.0420 ho        1 MOL      0.385866
    144 N13        -6.3230   -0.3750   -1.0220 n         1 MOL     -0.106626
    145 C48        -6.3700   -1.8420   -0.9060 c3        1 MOL     -0.179300
    146 C49        -5.3850   -2.4550    0.1290 c         1 MOL      0.300447
    147 O21        -5.5380   -3.6320    0.4750 o         1 MOL     -0.500023
    148 C50        -6.0040   -2.4110   -2.3090 c3        1 MOL     -0.035651
    149 C51        -6.8550   -2.0230   -3.5290 c3        1 MOL     -0.136274
    150 C52        -6.9370   -3.2060   -4.5290 c         1 MOL      0.670924
    151 O22        -7.9960   -3.9160   -4.4980 o         1 MOL     -0.732269
    152 O23        -5.9660   -3.3610   -5.2550 o         1 MOL     -0.732269
    153 H65        -5.8030    0.0970   -1.7430 hn        1 MOL      0.014740
    154 H66        -7.4130   -2.0550   -0.6700 h1        1 MOL      0.151269
    155 H67        -6.0010   -3.5010   -2.2580 hc        1 MOL      0.082104
    156 H68        -5.0070   -2.1230   -2.6590 hc        1 MOL      0.082104
    157 H69        -6.4350   -1.1680   -4.0530 hc        1 MOL     -0.005997
    158 H70        -7.8720   -1.8060   -3.2020 hc        1 MOL     -0.005997
    159 N14        -4.3700   -1.7530    0.5240 n         1 MOL     -0.105146
    160 C53        -3.3640   -2.1980    1.5130 c3        1 MOL      0.034553
    161 C54        -3.8390   -2.0160    2.9310 c         1 MOL      0.403849
    162 O24        -3.6430   -2.8050    3.8290 o         1 MOL     -0.559017
    163 C55        -2.0190   -1.4900    1.2980 c3        1 MOL      0.131911
    164 C56        -1.4450   -1.7960   -0.1070 c3        1 MOL     -0.163775
    165 C57        -0.0320   -1.2490   -0.3430 c         1 MOL      0.882955
    166 O25         0.9610   -1.9400   -0.6200 o         1 MOL     -0.805220
    167 O26         0.0360   -0.0260   -0.2670 o         1 MOL     -0.805220
    168 H71        -4.3200   -0.7710    0.3110 hn        1 MOL      0.120729
    169 H72        -3.1750   -3.2590    1.4280 h1        1 MOL      0.076811
    170 H73        -1.3220   -1.9360    2.0180 hc        1 MOL     -0.016459
    171 H74        -2.1950   -0.4290    1.5120 hc        1 MOL     -0.016459
    172 H75        -2.0080   -1.3430   -0.9330 hc        1 MOL      0.017091
    173 H76        -1.5970   -2.8470   -0.3420 hc        1 MOL      0.017091
    174 N15        -4.5950   -0.9020    3.1400 n         1 MOL      0.117417
    175 C58        -5.3270   -0.4680    4.3280 c3        1 MOL     -0.295627
    176 H77        -6.0190    0.3290    4.0560 h1        1 MOL      0.094961
    177 H78        -5.8860   -1.3090    4.7380 h1        1 MOL      0.094961
    178 H79        -4.6230   -0.0990    5.0740 h1        1 MOL      0.094961
    179 H80        -4.6960   -0.4410    2.2480 hn        1 MOL     -0.086811
    180 Ca1         2.3610    0.1950   -1.3390 Ca        1 MOL      1.747712
    181 O27         1.7750    2.7700   -2.1440 oh        1 MOL     -0.874310
    182 O28         0.6590    0.2700   -3.4460 oh        1 MOL     -0.874310
    183 H81         1.5360    2.6860   -3.0650 ho        1 MOL      0.425095
    184 H82         0.7410    0.6730   -4.3100 ho        1 MOL      0.425095
    185 H83         2.7260    2.7970   -2.1260 ho        1 MOL      0.425095
    186 H84        -0.1790   -0.1930   -3.4800 ho        1 MOL      0.425095
@<TRIPOS>BOND
     1    1    2 1   
     2    1    4 1   
     3    1    5 1   
     4    1    6 1   
     5    2    3 2   
     6    2    7 1   
     7    7    8 1   
     8    7   15 1   
     9    8    9 1   
    10    8   11 1   
    11    8   16 1   
    12    9   10 2   
    13    9   19 1   
    14   11   12 1   
    15   11   17 1   
    16   11   18 1   
    17   12   13 1   
    18   12   14 1   
    19   19   20 1   
    20   19   27 1   
    21   20   21 1   
    22   20   23 1   
    23   20   28 1   
    24   21   22 2   
    25   21   38 1   
    26   23   24 1   
    27   23   25 1   
    28   23   29 1   
    29   24   26 1   
    30   24   30 1   
    31   24   31 1   
    32   25   32 1   
    33   25   33 1   
    34   25   34 1   
    35   26   35 1   
    36   26   36 1   
    37   26   37 1   
    38   38   39 1   
    39   38   46 1   
    40   39   40 1   
    41   39   42 1   
    42   39   47 1   
    43   40   41 2   
    44   40   50 1   
    45   42   43 1   
    46   42   48 1   
    47   42   49 1   
    48   43   44 1   
    49   43   45 1   
    50   50   51 1   
    51   50   54 1   
    52   51   52 1   
    53   51   55 1   
    54   51   56 1   
    55   52   53 2   
    56   52   57 1   
    57   57   58 1   
    58   57   65 1   
    59   58   59 1   
    60   58   61 1   
    61   58   66 1   
    62   59   60 2   
    63   59   69 1   
    64   61   62 1   
    65   61   67 1   
    66   61   68 1   
    67   62   63 1   
    68   62   64 1   
    69   69   70 1   
    70   69   73 1   
    71   70   71 1   
    72   70   74 1   
    73   70   75 1   
    74   71   72 2   
    75   71   76 1   
    76   76   77 1   
    77   76   85 1   
    78   77   78 1   
    79   77   80 1   
    80   77   86 1   
    81   78   79 2   
    82   78   93 1   
    83   80   81 1   
    84   80   87 1   
    85   80   88 1   
    86   81   82 1   
    87   81   89 1   
    88   81   90 1   
    89   82   83 1   
    90   82   84 2   
    91   83   91 1   
    92   83   92 1   
    93   93   94 1   
    94   93  100 1   
    95   94   95 1   
    96   94   97 1   
    97   94  101 1   
    98   95   96 2   
    99   95  109 1   
   100   97   98 1   
   101   97   99 1   
   102   97  102 1   
   103   98  103 1   
   104   98  104 1   
   105   98  105 1   
   106   99  106 1   
   107   99  107 1   
   108   99  108 1   
   109  109  110 1   
   110  109  117 1   
   111  110  111 1   
   112  110  113 1   
   113  110  118 1   
   114  111  112 2   
   115  111  123 1   
   116  113  114 1   
   117  113  119 1   
   118  113  120 1   
   119  114  115 1   
   120  114  116 2   
   121  115  121 1   
   122  115  122 1   
   123  123  124 1   
   124  123  135 1   
   125  124  125 1   
   126  124  127 1   
   127  124  136 1   
   128  125  126 2   
   129  125  144 1   
   130  127  128 1   
   131  127  137 1   
   132  127  138 1   
   133  128  129 ar  
   134  128  130 ar  
   135  129  131 ar  
   136  129  139 1   
   137  130  132 ar  
   138  130  140 1   
   139  131  133 ar  
   140  131  141 1   
   141  132  133 ar  
   142  132  142 1   
   143  133  134 1   
   144  134  143 1   
   145  144  145 1   
   146  144  153 1   
   147  145  146 1   
   148  145  148 1   
   149  145  154 1   
   150  146  147 2   
   151  146  159 1   
   152  148  149 1   
   153  148  155 1   
   154  148  156 1   
   155  149  150 1   
   156  149  157 1   
   157  149  158 1   
   158  150  151 1   
   159  150  152 1   
   160  159  160 1   
   161  159  168 1   
   162  160  161 1   
   163  160  163 1   
   164  160  169 1   
   165  161  162 2   
   166  161  174 1   
   167  163  164 1   
   168  163  170 1   
   169  163  171 1   
   170  164  165 1   
   171  164  172 1   
   172  164  173 1   
   173  165  166 1   
   174  165  167 1   
   175  174  175 1   
   176  174  179 1   
   177  175  176 1   
   178  175  177 1   
   179  175  178 1   
   180  181  183 1   
   181  181  185 1   
   182  182  184 1   
   183  182  186 1   
@<TRIPOS>SUBSTRUCTURE
     1 MOL         1 TEMP              0 ****  ****    0 ROOT
