@<TRIPOS>MOLECULE
MOL
  179   176     1     0     0
SMALL
resp


@<TRIPOS>ATOM
      1 C1          1.7560    4.1710    5.1790 c3        1 MOL     -0.215865
      2 C2          1.2060    3.4280    3.9100 c         1 MOL      0.520100
      3 O1          2.0620    2.9030    3.1190 o         1 MOL     -0.598542
      4 H1          1.1110    5.0190    5.4110 hc        1 MOL      0.066269
      5 H2          1.7690    3.4840    6.0250 hc        1 MOL      0.066269
      6 H3          2.7670    4.5260    4.9840 hc        1 MOL      0.066269
      7 N1         -0.0850    3.3110    3.6690 n         1 MOL     -0.402958
      8 C3         -0.6160    2.8600    2.4140 c3        1 MOL     -0.101055
      9 C4         -0.8310    4.0240    1.4120 c         1 MOL      0.524917
     10 O2         -1.8720    4.6600    1.4280 o         1 MOL     -0.471763
     11 C5         -1.9480    2.0920    2.7160 c3        1 MOL     -0.045652
     12 C6         -2.7720    1.5040    1.6350 c         1 MOL      0.706676
     13 O3         -3.9070    1.1160    1.9870 o         1 MOL     -0.696279
     14 O4         -2.3490    1.5250    0.4350 o         1 MOL     -0.696279
     15 H4         -0.6710    3.4790    4.4770 hn        1 MOL      0.307785
     16 H5          0.0400    2.0770    2.0210 h1        1 MOL     -0.000167
     17 H6         -2.5660    2.7710    3.3020 hc        1 MOL      0.033034
     18 H7         -1.7140    1.3190    3.4390 hc        1 MOL      0.033034
     19 N2          0.1550    4.2890    0.6040 n         1 MOL     -0.353937
     20 C7          0.2300    5.4480   -0.2920 c3        1 MOL      0.085360
     21 C8         -1.0710    5.6270   -1.1430 c         1 MOL      0.388743
     22 O5         -1.4840    6.7870   -1.3350 o         1 MOL     -0.536022
     23 C9          1.4960    5.4380   -1.1940 c3        1 MOL     -0.398004
     24 C10         2.9010    5.4420   -0.4380 c3        1 MOL      0.103615
     25 C11         2.9960    6.8150    0.2920 c3        1 MOL     -0.198057
     26 C12         4.4140    7.2640    0.6310 c3        1 MOL     -0.017625
     27 N3          4.9880    6.4290    1.6770 n4        1 MOL     -0.455712
     28 H8          0.8620    3.5720    0.5150 hn        1 MOL      0.351492
     29 H9          0.2780    6.3750    0.2900 h1        1 MOL      0.051707
     30 H10         1.5430    6.3010   -1.8630 hc        1 MOL      0.150034
     31 H11         1.4000    4.5390   -1.8090 hc        1 MOL      0.150034
     32 H12         3.7420    5.3550   -1.1300 hc        1 MOL      0.033350
     33 H13         2.9700    4.6150    0.2650 hc        1 MOL      0.033350
     34 H14         2.3420    6.8140    1.1620 hc        1 MOL      0.101605
     35 H15         2.5590    7.5440   -0.3910 hc        1 MOL      0.101605
     36 H16         4.3520    8.2960    0.9720 hx        1 MOL      0.107178
     37 H17         5.0390    7.2580   -0.2570 hx        1 MOL      0.107178
     38 H18         5.9880    6.5440    1.7530 hn        1 MOL      0.365754
     39 H19         4.6120    6.7960    2.5370 hn        1 MOL      0.365754
     40 H20         4.7200    5.4970    1.4120 hn        1 MOL      0.365754
     41 N4         -1.6290    4.5750   -1.8010 n         1 MOL     -0.156097
     42 C13        -2.9000    4.5670   -2.5490 c3        1 MOL      0.023259
     43 C14        -4.1640    4.2740   -1.7020 c         1 MOL      0.456692
     44 O6         -5.2020    4.5380   -2.2460 o         1 MOL     -0.552004
     45 C15        -2.8270    3.8460   -3.9250 c3        1 MOL     -0.197018
     46 C16        -2.3770    2.4580   -4.0890 c         1 MOL      0.734842
     47 O7         -2.5180    1.8170   -5.1380 o         1 MOL     -0.675578
     48 O8         -1.8280    1.9220   -3.0690 o         1 MOL     -0.675578
     49 H21        -1.2290    3.6560   -1.6280 hn        1 MOL      0.089792
     50 H22        -2.9730    5.6110   -2.8750 h1        1 MOL      0.103517
     51 H23        -2.1910    4.5110   -4.5220 hc        1 MOL      0.058120
     52 H24        -3.7820    3.8820   -4.4530 hc        1 MOL      0.058120
     53 N5         -4.0910    3.8930   -0.4290 n         1 MOL     -0.073037
     54 C17        -5.1970    3.7650    0.5170 c3        1 MOL     -0.200930
     55 C18        -6.0120    2.5060    0.3420 c         1 MOL      0.633842
     56 O9         -7.1450    2.5160    0.7680 o         1 MOL     -0.599512
     57 H25        -3.1690    3.6680   -0.0680 hn        1 MOL      0.021861
     58 H26        -5.9190    4.5880    0.4830 h1        1 MOL      0.114286
     59 H27        -4.6800    3.7790    1.4710 h1        1 MOL      0.114286
     60 N6         -5.5130    1.5010   -0.3830 n         1 MOL     -0.243454
     61 C19        -6.3530    0.3670   -0.8540 c3        1 MOL     -0.072862
     62 C20        -6.3540   -0.8550    0.0890 c         1 MOL      0.213176
     63 O10        -6.7940   -1.9820   -0.2600 o         1 MOL     -0.424691
     64 C21        -5.9750   -0.0380   -2.3040 c3        1 MOL     -0.176625
     65 C22        -4.7350   -0.9930   -2.3860 c         1 MOL      0.656777
     66 N7         -4.7820   -2.0840   -3.1500 n         1 MOL     -0.785289
     67 O11        -3.7040   -0.7580   -1.7710 o         1 MOL     -0.563449
     68 H28        -4.5080    1.4330   -0.4760 hn        1 MOL      0.082908
     69 H29        -7.3520    0.8050   -0.9260 h1        1 MOL      0.173722
     70 H30        -5.7370    0.8610   -2.8800 hc        1 MOL      0.083901
     71 H31        -6.8120   -0.5760   -2.7560 hc        1 MOL      0.083901
     72 H32        -5.7040   -2.2980   -3.4980 hn        1 MOL      0.373570
     73 H33        -4.0140   -2.7350   -3.2090 hn        1 MOL      0.373570
     74 N8         -5.9170   -0.7300    1.3350 n         1 MOL     -0.043894
     75 C23        -6.1080   -1.7180    2.3940 c3        1 MOL     -0.455227
     76 C24        -4.9430   -2.7320    2.4520 c         1 MOL      0.620891
     77 O12        -5.1550   -3.8100    3.1200 o         1 MOL     -0.510087
     78 H34        -5.4580    0.1480    1.5420 hn        1 MOL      0.267558
     79 H35        -7.0150   -2.3090    2.2120 h1        1 MOL      0.186794
     80 H36        -6.2880   -1.1830    3.3210 h1        1 MOL      0.186794
     81 N9         -3.8340   -2.3380    1.7570 n         1 MOL     -0.523336
     82 C25        -2.6510   -3.1210    1.5650 c3        1 MOL      0.123537
     83 C26        -1.3740   -2.2470    1.3830 c         1 MOL      0.618440
     84 O13        -1.3310   -1.2790    0.5700 o         1 MOL     -0.628378
     85 C27        -2.8080   -3.9410    0.3170 c3        1 MOL      0.200708
     86 C28        -4.0080   -4.9410    0.3510 ca        1 MOL     -0.218101
     87 C29        -5.1520   -4.6700   -0.4840 ca        1 MOL     -0.048780
     88 C30        -4.0060   -6.1140    1.0970 ca        1 MOL     -0.048780
     89 C31        -6.1950   -5.5990   -0.5420 ca        1 MOL     -0.260457
     90 C32        -5.1420   -6.9600    1.1110 ca        1 MOL     -0.260457
     91 C33        -6.2510   -6.7610    0.3040 ca        1 MOL      0.319611
     92 O14        -7.4120   -7.4640    0.3630 oh        1 MOL     -0.473324
     93 H37        -3.7360   -1.3780    1.4880 hn        1 MOL      0.323398
     94 H38        -2.4640   -3.7760    2.4150 h1        1 MOL      0.018864
     95 H39        -1.9250   -4.5390    0.0880 hc        1 MOL     -0.002751
     96 H40        -2.9920   -3.3080   -0.5420 hc        1 MOL     -0.002751
     97 H41        -5.1600   -3.8390   -1.1680 ha        1 MOL      0.093527
     98 H42        -3.1740   -6.4620    1.6860 ha        1 MOL      0.093527
     99 H43        -7.0530   -5.3920   -1.1530 ha        1 MOL      0.131831
    100 H44        -5.1570   -7.7700    1.8340 ha        1 MOL      0.131831
    101 H45        -7.3910   -8.2200    0.9570 ho        1 MOL      0.367304
    102 N10        -0.2730   -2.6580    2.0540 n         1 MOL     -0.638611
    103 C34         1.0740   -2.0440    1.9020 c3        1 MOL     -0.020039
    104 C35         1.9640   -3.0590    1.2500 c         1 MOL      0.559872
    105 O15         2.2140   -4.1430    1.7380 o         1 MOL     -0.557283
    106 C36         1.6390   -1.6450    3.2730 c3        1 MOL     -0.002634
    107 C37         0.8580   -0.4630    3.8620 c3        1 MOL      0.065367
    108 C38         3.1350   -1.2440    3.3340 c3        1 MOL     -0.187802
    109 C39         1.1190   -0.1450    5.3800 c3        1 MOL     -0.380393
    110 H46        -0.3210   -3.4810    2.6280 hn        1 MOL      0.360053
    111 H47         0.9910   -1.1090    1.3580 h1        1 MOL      0.110027
    112 H48         1.5590   -2.4920    3.9500 hc        1 MOL      0.042567
    113 H49        -0.1900   -0.7190    3.7130 hc        1 MOL      0.055839
    114 H50         1.1510    0.4150    3.2770 hc        1 MOL      0.055839
    115 H51         3.3280   -0.3050    2.8140 hc        1 MOL      0.052996
    116 H52         3.5290   -1.1040    4.3370 hc        1 MOL      0.052996
    117 H53         3.6850   -2.0730    2.8890 hc        1 MOL      0.052996
    118 H54         1.2020   -1.0790    5.9340 hc        1 MOL      0.100974
    119 H55         2.0410    0.4150    5.5350 hc        1 MOL      0.100974
    120 H56         0.2760    0.3920    5.8160 hc        1 MOL      0.100974
    121 N11         2.3760   -2.7530    0.0460 n         1 MOL     -0.335038
    122 C40         3.1510   -3.7840   -0.7430 c3        1 MOL      0.052617
    123 C41         4.6120   -3.8300   -0.3240 c         1 MOL      0.371984
    124 O16         5.0400   -2.9840    0.4420 o         1 MOL     -0.334905
    125 C42         2.9630   -3.4920   -2.2350 c3        1 MOL     -0.229793
    126 O17         3.7810   -2.3790   -2.6170 oh        1 MOL     -0.457500
    127 H57         2.1230   -1.8530   -0.3490 hn        1 MOL      0.328704
    128 H58         2.7290   -4.7780   -0.5940 h1        1 MOL      0.088503
    129 H59         1.9180   -3.1990   -2.3390 h1        1 MOL      0.137746
    130 H60         3.1000   -4.3870   -2.8450 h1        1 MOL      0.137746
    131 H61         3.4970   -2.0300   -3.4690 ho        1 MOL      0.393614
    132 N12         5.3900   -4.8080   -0.8370 n         1 MOL     -0.474079
    133 C43         6.8430   -4.8810   -0.7270 c3        1 MOL      0.300535
    134 C44         7.6290   -3.6220   -1.2080 c         1 MOL      0.333347
    135 O18         8.7930   -3.4170   -0.7120 o         1 MOL     -0.524053
    136 C45         7.3350   -6.1340   -1.4630 c3        1 MOL     -0.292367
    137 H62         4.9370   -5.4770   -1.4520 hn        1 MOL      0.288994
    138 H63         7.1090   -4.9230    0.3300 h1        1 MOL      0.043847
    139 H64         6.7910   -7.0440   -1.1910 hc        1 MOL      0.083397
    140 H65         7.3380   -5.8350   -2.5070 hc        1 MOL      0.083397
    141 H66         8.3600   -6.1960   -1.0940 hc        1 MOL      0.083397
    142 N13         7.0150   -2.7200   -1.9680 n         1 MOL     -0.213793
    143 C46         7.5190   -1.4030   -2.3790 c3        1 MOL      0.117322
    144 C47         7.1170   -0.2340   -1.5440 c         1 MOL      0.303450
    145 O19         7.8430    0.7760   -1.4290 o         1 MOL     -0.507809
    146 C48         7.1750   -1.1980   -3.8470 c3        1 MOL     -0.196278
    147 H67         6.1720   -3.0980   -2.3590 hn        1 MOL      0.175817
    148 H68         8.6020   -1.3390   -2.2580 h1        1 MOL      0.082870
    149 H69         6.0940   -1.1600   -3.9710 hc        1 MOL      0.055703
    150 H70         7.5870   -0.2520   -4.2120 hc        1 MOL      0.055703
    151 H71         7.5160   -2.0340   -4.4490 hc        1 MOL      0.055703
    152 N14         5.9170   -0.2940   -1.0890 n         1 MOL      0.034880
    153 C49         5.4380    0.7580   -0.1680 c3        1 MOL     -0.243689
    154 C50         6.0980    0.5770    1.1700 c         1 MOL      0.515617
    155 O20         6.4250    1.5970    1.7550 o         1 MOL     -0.580692
    156 C51         3.8880    0.8590   -0.0470 c3        1 MOL      0.165593
    157 C52         3.2370    1.1060   -1.3630 c3        1 MOL     -0.102637
    158 C53         1.6920    0.9010   -1.2460 c         1 MOL      0.637582
    159 O21         0.8570    1.8070   -1.4390 o         1 MOL     -0.698917
    160 O22         1.2170   -0.2480   -1.1080 o         1 MOL     -0.698917
    161 H72         5.2650   -1.0210   -1.3510 hn        1 MOL      0.075098
    162 H73         5.6970    1.7550   -0.5550 h1        1 MOL      0.104175
    163 H74         3.6210    1.6940    0.6030 hc        1 MOL     -0.010567
    164 H75         3.4960   -0.0640    0.3940 hc        1 MOL     -0.010567
    165 H76         3.6490    0.3220   -1.9930 hc        1 MOL     -0.005689
    166 H77         3.4330    2.1300   -1.6820 hc        1 MOL     -0.005689
    167 N15         6.4050   -0.6470    1.6840 n         1 MOL     -0.047033
    168 C54         7.3540   -0.8580    2.7370 c3        1 MOL     -0.317704
    169 H78         7.8610   -1.8100    2.5820 h1        1 MOL      0.115341
    170 H79         8.0870   -0.0510    2.7330 h1        1 MOL      0.115341
    171 H80         6.8350   -0.8750    3.6960 h1        1 MOL      0.115341
    172 H81         6.0290   -1.4760    1.2470 hn        1 MOL      0.082471
    173 Ca1        -1.2420    0.1380   -1.5670 Ca        1 MOL      1.747602
    174 O23        -0.8250   -2.5550   -2.1480 oh        1 MOL     -0.895358
    175 H82        -1.4660   -3.2250   -2.3860 ho        1 MOL      0.402256
    176 H83        -0.0870   -2.7190   -2.7280 ho        1 MOL      0.402256
    177 O24        -1.4460   -0.4420   -4.2830 oh        1 MOL     -0.895358
    178 H84        -1.7860    0.2230   -4.8800 ho        1 MOL      0.402256
    179 H85        -1.5400   -1.2640   -4.7670 ho        1 MOL      0.402256
@<TRIPOS>BOND
     1    1    2 1   
     2    1    4 1   
     3    1    5 1   
     4    1    6 1   
     5    2    3 2   
     6    2    7 1   
     7    7    8 1   
     8    7   15 1   
     9    8    9 1   
    10    8   11 1   
    11    8   16 1   
    12    9   10 2   
    13    9   19 1   
    14   11   12 1   
    15   11   17 1   
    16   11   18 1   
    17   12   13 1   
    18   12   14 1   
    19   19   20 1   
    20   19   28 1   
    21   20   21 1   
    22   20   23 1   
    23   20   29 1   
    24   21   22 2   
    25   21   41 1   
    26   23   24 1   
    27   23   30 1   
    28   23   31 1   
    29   24   25 1   
    30   24   32 1   
    31   24   33 1   
    32   25   26 1   
    33   25   34 1   
    34   25   35 1   
    35   26   27 1   
    36   26   36 1   
    37   26   37 1   
    38   27   38 1   
    39   27   39 1   
    40   27   40 1   
    41   41   42 1   
    42   41   49 1   
    43   42   43 1   
    44   42   45 1   
    45   42   50 1   
    46   43   44 2   
    47   43   53 1   
    48   45   46 1   
    49   45   51 1   
    50   45   52 1   
    51   46   47 1   
    52   46   48 1   
    53   53   54 1   
    54   53   57 1   
    55   54   55 1   
    56   54   58 1   
    57   54   59 1   
    58   55   56 2   
    59   55   60 1   
    60   60   61 1   
    61   60   68 1   
    62   61   62 1   
    63   61   64 1   
    64   61   69 1   
    65   62   63 2   
    66   62   74 1   
    67   64   65 1   
    68   64   70 1   
    69   64   71 1   
    70   65   66 1   
    71   65   67 2   
    72   66   72 1   
    73   66   73 1   
    74   74   75 1   
    75   74   78 1   
    76   75   76 1   
    77   75   79 1   
    78   75   80 1   
    79   76   77 2   
    80   76   81 1   
    81   81   82 1   
    82   81   93 1   
    83   82   83 1   
    84   82   85 1   
    85   82   94 1   
    86   83   84 2   
    87   83  102 1   
    88   85   86 1   
    89   85   95 1   
    90   85   96 1   
    91   86   87 ar  
    92   86   88 ar  
    93   87   89 ar  
    94   87   97 1   
    95   88   90 ar  
    96   88   98 1   
    97   89   91 ar  
    98   89   99 1   
    99   90   91 ar  
   100   90  100 1   
   101   91   92 1   
   102   92  101 1   
   103  102  103 1   
   104  102  110 1   
   105  103  104 1   
   106  103  106 1   
   107  103  111 1   
   108  104  105 2   
   109  104  121 1   
   110  106  107 1   
   111  106  108 1   
   112  106  112 1   
   113  107  109 1   
   114  107  113 1   
   115  107  114 1   
   116  108  115 1   
   117  108  116 1   
   118  108  117 1   
   119  109  118 1   
   120  109  119 1   
   121  109  120 1   
   122  121  122 1   
   123  121  127 1   
   124  122  123 1   
   125  122  125 1   
   126  122  128 1   
   127  123  124 2   
   128  123  132 1   
   129  125  126 1   
   130  125  129 1   
   131  125  130 1   
   132  126  131 1   
   133  132  133 1   
   134  132  137 1   
   135  133  134 1   
   136  133  136 1   
   137  133  138 1   
   138  134  135 2   
   139  134  142 1   
   140  136  139 1   
   141  136  140 1   
   142  136  141 1   
   143  142  143 1   
   144  142  147 1   
   145  143  144 1   
   146  143  146 1   
   147  143  148 1   
   148  144  145 2   
   149  144  152 1   
   150  146  149 1   
   151  146  150 1   
   152  146  151 1   
   153  152  153 1   
   154  152  161 1   
   155  153  154 1   
   156  153  156 1   
   157  153  162 1   
   158  154  155 2   
   159  154  167 1   
   160  156  157 1   
   161  156  163 1   
   162  156  164 1   
   163  157  158 1   
   164  157  165 1   
   165  157  166 1   
   166  158  159 1   
   167  158  160 1   
   168  167  168 1   
   169  167  172 1   
   170  168  169 1   
   171  168  170 1   
   172  168  171 1   
   173  174  175 1   
   174  174  176 1   
   175  177  178 1   
   176  177  179 1   
@<TRIPOS>SUBSTRUCTURE
     1 MOL         1 TEMP              0 ****  ****    0 ROOT
