@<TRIPOS>MOLECULE
MOL
  172   171     1     0     0
SMALL
resp


@<TRIPOS>ATOM
      1 C1          0.2630   -2.1420    6.2620 c3        1 MOL     -0.341765
      2 C2          0.5250   -1.9200    4.7880 c         1 MOL      0.715616
      3 O1         -0.2560   -2.3380    3.9130 o         1 MOL     -0.597532
      4 H1          1.1970   -2.0410    6.8160 hc        1 MOL      0.084625
      5 H2         -0.4530   -1.4030    6.6200 hc        1 MOL      0.084625
      6 H3         -0.1420   -3.1430    6.4130 hc        1 MOL      0.084625
      7 N1          1.7520   -1.6480    4.4070 n         1 MOL     -0.521377
      8 C3          2.2260   -1.6310    3.0480 c3        1 MOL      0.127065
      9 C4          2.5380   -2.9970    2.4400 c         1 MOL      0.614363
     10 O2          3.4720   -3.6270    2.8460 o         1 MOL     -0.599558
     11 C5          3.3710   -0.5980    2.9010 c3        1 MOL     -0.133412
     12 C6          4.0240   -0.4840    1.5160 c         1 MOL      0.709127
     13 O3          3.5020   -0.8630    0.4350 o         1 MOL     -0.669711
     14 O4          5.1330    0.0240    1.4810 o         1 MOL     -0.669711
     15 H4          2.4630   -1.4640    5.1030 hn        1 MOL      0.293182
     16 H5          1.5170   -1.1490    2.3700 h1        1 MOL     -0.017018
     17 H6          4.1400   -0.8360    3.6290 hc        1 MOL      0.017780
     18 H7          2.9220    0.3400    3.2010 hc        1 MOL      0.017780
     19 N2          1.7750   -3.5820    1.4930 n         1 MOL     -0.352738
     20 C7          1.9050   -4.9640    1.0060 c3        1 MOL      0.209238
     21 C8          2.9410   -5.1160   -0.1750 c         1 MOL      0.400883
     22 O5          3.7140   -6.0590   -0.2380 o         1 MOL     -0.560564
     23 C9          0.5070   -5.4680    0.6980 c3        1 MOL     -0.405359
     24 H8          1.0080   -3.0740    1.0850 hn        1 MOL      0.217008
     25 H9          2.3580   -5.5500    1.8060 h1        1 MOL      0.038166
     26 H10         0.5550   -6.4570    0.2410 hc        1 MOL      0.106896
     27 H11        -0.1040   -5.4640    1.6060 hc        1 MOL      0.106896
     28 H12         0.0530   -4.7940   -0.0180 hc        1 MOL      0.106896
     29 N3          3.0630   -4.1660   -1.1630 n         1 MOL     -0.273648
     30 C10         4.1590   -4.1590   -2.2160 c3        1 MOL      0.019749
     31 C11         5.4810   -3.5800   -1.7520 c         1 MOL      0.390942
     32 O6          6.5540   -3.7120   -2.3690 o         1 MOL     -0.531819
     33 C12         3.7430   -3.6480   -3.6190 c3        1 MOL     -0.195640
     34 C13         3.1910   -2.2390   -3.6350 c         1 MOL      0.775215
     35 O7          3.0290   -1.6400   -4.7280 o         1 MOL     -0.707795
     36 O8          2.9850   -1.6000   -2.5890 o         1 MOL     -0.707795
     37 H13         2.4410   -3.3740   -1.1500 hn        1 MOL      0.216655
     38 H14         4.3960   -5.2120   -2.4100 h1        1 MOL      0.105620
     39 H15         2.9470   -4.3030   -3.9790 hc        1 MOL      0.039836
     40 H16         4.5660   -3.7350   -4.3250 hc        1 MOL      0.039836
     41 N4          5.5320   -3.0440   -0.5270 n         1 MOL     -0.137546
     42 C14         6.7270   -2.5080    0.0680 c3        1 MOL     -0.095199
     43 C15         7.2710   -1.2340   -0.6320 c         1 MOL      0.528953
     44 O9          8.4220   -1.2030   -0.8850 o         1 MOL     -0.579745
     45 H17         4.6620   -2.7930   -0.0610 hn        1 MOL      0.166194
     46 H18         7.4130   -3.3670    0.0890 h1        1 MOL      0.067536
     47 H19         6.6340   -2.2510    1.1220 h1        1 MOL      0.067536
     48 N5          6.4180   -0.3420   -1.1440 n         1 MOL     -0.152394
     49 C16         6.8560    0.8500   -1.8730 c3        1 MOL     -0.096440
     50 C17         7.1300    2.1060   -1.0280 c         1 MOL      0.364138
     51 O10         7.7570    3.1010   -1.4710 o         1 MOL     -0.543894
     52 C18         5.9160    1.1500   -3.0990 c3        1 MOL     -0.234801
     53 C19         4.7010    1.9690   -2.6190 c         1 MOL      0.748705
     54 N6          4.6840    3.2500   -3.0230 n         1 MOL     -0.837476
     55 O11         3.7830    1.4900   -1.9470 o         1 MOL     -0.565099
     56 H20         5.4860   -0.3730   -0.7630 hn        1 MOL      0.083088
     57 H21         7.8720    0.6260   -2.2020 h1        1 MOL      0.141544
     58 H22         5.5240    0.2370   -3.5610 hc        1 MOL      0.096034
     59 H23         6.4800    1.6720   -3.8860 hc        1 MOL      0.096034
     60 H24         5.2180    3.6060   -3.7940 hn        1 MOL      0.368990
     61 H25         4.0060    3.8330   -2.5580 hn        1 MOL      0.368990
     62 N7          6.6990    2.0310    0.2580 n         1 MOL     -0.085122
     63 C20         6.7520    3.0090    1.2770 c3        1 MOL     -0.237273
     64 C21         5.4610    3.8520    1.5470 c         1 MOL      0.625733
     65 O12         5.5380    4.6600    2.4430 o         1 MOL     -0.575448
     66 H26         6.1880    1.2130    0.5280 hn        1 MOL      0.178521
     67 H27         7.5080    3.7250    0.9630 h1        1 MOL      0.098363
     68 H28         7.0830    2.5620    2.2230 h1        1 MOL      0.098363
     69 N8          4.3400    3.5760    0.7940 n         1 MOL     -0.345297
     70 C22         3.0390    4.1580    1.0630 c3        1 MOL     -0.034135
     71 C23         1.9540    3.1250    1.0840 c         1 MOL      0.563298
     72 O13         2.0400    2.0430    0.4790 o         1 MOL     -0.582084
     73 C24         2.6050    5.2040   -0.0640 c3        1 MOL      0.331429
     74 C25         3.3880    6.4670    0.1440 c3        1 MOL     -0.403013
     75 O14         2.9340    4.7850   -1.4230 oh        1 MOL     -0.574921
     76 H29         4.5600    3.0280   -0.0200 hn        1 MOL      0.232650
     77 H30         3.1430    4.6290    2.0420 h1        1 MOL      0.074515
     78 H31         1.5530    5.4260    0.0630 h1        1 MOL      0.030057
     79 H32         2.5860    5.4780   -1.9740 ho        1 MOL      0.394651
     80 H33         3.3680    6.6440    1.2190 hc        1 MOL      0.091491
     81 H34         4.4570    6.3040   -0.0350 hc        1 MOL      0.091491
     82 H35         3.0490    7.3610   -0.3670 hc        1 MOL      0.091491
     83 N9          0.8580    3.4980    1.6760 n         1 MOL     -0.356979
     84 C26        -0.3570    2.6680    1.8150 c3        1 MOL      0.065843
     85 C27        -1.2420    3.0380    0.6690 c         1 MOL      0.437193
     86 O15        -1.2850    4.2370    0.2240 o         1 MOL     -0.607879
     87 C28        -1.0300    2.8270    3.1630 c3        1 MOL      0.078780
     88 C29        -0.0730    2.2390    4.2470 c3        1 MOL      0.118627
     89 C30        -2.4710    2.2290    3.1440 c3        1 MOL     -0.087635
     90 C31        -0.6540    2.5410    5.5830 c3        1 MOL     -0.305993
     91 H36         0.8400    4.4110    2.1050 hn        1 MOL      0.222369
     92 H37        -0.0590    1.6350    1.6510 h1        1 MOL      0.105297
     93 H38        -1.1580    3.9070    3.2490 hc        1 MOL     -0.010722
     94 H39         0.8520    2.7910    4.1100 hc        1 MOL     -0.026033
     95 H40         0.0590    1.1780    4.0380 hc        1 MOL     -0.026033
     96 H41        -2.4680    1.1790    2.8360 hc        1 MOL      0.003847
     97 H42        -2.9740    2.3050    4.1160 hc        1 MOL      0.003847
     98 H43        -3.0690    2.7450    2.3860 hc        1 MOL      0.003847
     99 H44        -1.5840    1.9900    5.7550 hc        1 MOL      0.066547
    100 H45         0.0910    2.3090    6.3370 hc        1 MOL      0.066547
    101 H46        -1.0360    3.5630    5.6840 hc        1 MOL      0.066547
    102 N10        -1.9500    2.0870    0.0550 n         1 MOL     -0.142605
    103 C32        -2.8870    2.1640   -1.1030 c3        1 MOL      0.282931
    104 C33        -4.2780    1.7900   -0.5940 c         1 MOL      0.277127
    105 O16        -4.4890    1.4140    0.5660 o         1 MOL     -0.359093
    106 C34        -2.3930    1.2920   -2.2800 c3        1 MOL     -0.470589
    107 C35        -0.8830    1.1910   -2.3730 c         1 MOL      0.891716
    108 O17        -0.4460    0.1070   -2.8360 o         1 MOL     -0.754206
    109 O18         0.0130    2.0270   -2.0660 o         1 MOL     -0.754206
    110 H47        -1.7530    1.1410    0.3400 hn        1 MOL      0.123173
    111 H48        -2.8860    3.2200   -1.3950 h1        1 MOL      0.020251
    112 H49        -2.8370    1.6590   -3.2030 hc        1 MOL      0.108495
    113 H50        -2.8550    0.3150   -2.1480 hc        1 MOL      0.108495
    114 N11        -5.2880    1.8000   -1.4500 n         1 MOL     -0.557786
    115 C36        -6.7310    1.5870   -1.0480 c3        1 MOL      0.374156
    116 C37        -7.0280    0.1410   -0.5810 c         1 MOL      0.338999
    117 O19        -7.6340    0.0340    0.5190 o         1 MOL     -0.490270
    118 C38        -7.5730    1.9560   -2.2470 c3        1 MOL     -0.124935
    119 C39        -9.0340    1.6320   -2.0990 ca        1 MOL      0.070925
    120 C40        -9.8000    2.0080   -0.9490 ca        1 MOL     -0.185646
    121 C41        -9.7210    1.0720   -3.1710 ca        1 MOL     -0.185646
    122 C42       -11.1710    1.6130   -0.8500 ca        1 MOL     -0.068981
    123 C43       -11.0710    0.6880   -3.0700 ca        1 MOL     -0.068981
    124 C44       -11.8320    0.9670   -1.8800 ca        1 MOL     -0.164086
    125 H51        -5.1110    2.1030   -2.3900 hn        1 MOL      0.301629
    126 H52        -7.1020    2.2740   -0.2950 h1        1 MOL      0.033495
    127 H53        -7.1260    1.5630   -3.1540 hc        1 MOL      0.034874
    128 H54        -7.4310    3.0340   -2.3570 hc        1 MOL      0.034874
    129 H55        -9.3340    2.3540   -0.0440 ha        1 MOL      0.123877
    130 H56        -9.2610    0.6860   -4.0710 ha        1 MOL      0.123877
    131 H57       -11.7130    1.7820    0.0650 ha        1 MOL      0.098212
    132 H58       -11.5490    0.2810   -3.9570 ha        1 MOL      0.098212
    133 H59       -12.8860    0.7390   -1.7570 ha        1 MOL      0.117392
    134 N12        -6.7130   -0.9360   -1.3410 n         1 MOL     -0.056719
    135 C45        -6.9240   -2.2450   -0.8390 c3        1 MOL     -0.100360
    136 C46        -6.1390   -2.5590    0.4720 c         1 MOL      0.478037
    137 O20        -6.6410   -3.0930    1.4300 o         1 MOL     -0.468007
    138 C47        -6.7590   -3.1800   -1.9820 c3        1 MOL     -0.113079
    139 C48        -5.7540   -2.5130   -2.8670 c3        1 MOL     -0.103645
    140 C49        -6.1570   -1.0210   -2.7020 c3        1 MOL      0.154537
    141 H60        -7.9740   -2.4070   -0.5790 h1        1 MOL      0.063139
    142 H61        -6.3510   -4.1280   -1.6220 hc        1 MOL      0.066395
    143 H62        -7.6610   -3.3320   -2.5770 hc        1 MOL      0.066395
    144 H63        -4.7230   -2.4820   -2.5170 hc        1 MOL      0.047212
    145 H64        -5.8560   -2.7990   -3.9120 hc        1 MOL      0.047212
    146 H65        -5.3030   -0.3730   -2.8650 h1        1 MOL     -0.023756
    147 H66        -6.9330   -0.7210   -3.4160 h1        1 MOL     -0.023756
    148 N13        -4.8600   -2.0830    0.4440 n         1 MOL     -0.303409
    149 C50        -4.0170   -2.2010    1.6030 c3        1 MOL     -0.154937
    150 C51        -4.7310   -1.5870    2.8490 c         1 MOL      0.330380
    151 O21        -4.9200   -2.1880    3.9000 o         1 MOL     -0.530312
    152 C52        -2.5870   -1.5300    1.4120 c3        1 MOL      0.027018
    153 C53        -1.9230   -2.1400    0.2120 c3        1 MOL      0.034596
    154 C54        -0.6280   -1.5100   -0.1470 c         1 MOL      0.675080
    155 O22        -0.3790   -0.3000    0.1360 o         1 MOL     -0.742548
    156 O23         0.2500   -2.1990   -0.6900 o         1 MOL     -0.742548
    157 H67        -4.4840   -1.7240   -0.4190 hn        1 MOL      0.251319
    158 H68        -3.8730   -3.2540    1.8270 h1        1 MOL      0.119264
    159 H69        -1.9320   -1.6670    2.2720 hc        1 MOL      0.057643
    160 H70        -2.7690   -0.4560    1.2640 hc        1 MOL      0.057643
    161 H71        -2.4680   -2.0100   -0.7200 hc        1 MOL     -0.007119
    162 H72        -1.7930   -3.2190    0.2720 hc        1 MOL     -0.007119
    163 N14        -5.3530   -0.4210    2.7060 n         1 MOL      0.140012
    164 C55        -6.1380    0.1950    3.7960 c3        1 MOL     -0.250894
    165 H73        -5.8470    1.2400    3.9070 h1        1 MOL      0.084645
    166 H74        -7.2000    0.1380    3.5580 h1        1 MOL      0.084645
    167 H75        -5.9450   -0.3360    4.7280 h1        1 MOL      0.084645
    168 H76        -5.2110    0.1590    1.8890 hn        1 MOL     -0.019716
    169 Ca1         1.7500    0.0840   -1.2530 Ca        1 MOL      1.675633
    170 O24         1.7970    0.5480   -4.1030 oh        1 MOL     -0.865151
    171 H77         0.8780    0.2700   -4.0410 ho        1 MOL      0.378420
    172 H78         2.2730   -0.2530   -4.2990 ho        1 MOL      0.378420
@<TRIPOS>BOND
     1    1    2 1   
     2    1    4 1   
     3    1    5 1   
     4    1    6 1   
     5    2    3 2   
     6    2    7 1   
     7    7    8 1   
     8    7   15 1   
     9    8    9 1   
    10    8   11 1   
    11    8   16 1   
    12    9   10 2   
    13    9   19 1   
    14   11   12 1   
    15   11   17 1   
    16   11   18 1   
    17   12   13 1   
    18   12   14 1   
    19   19   20 1   
    20   19   24 1   
    21   20   21 1   
    22   20   23 1   
    23   20   25 1   
    24   21   22 2   
    25   21   29 1   
    26   23   26 1   
    27   23   27 1   
    28   23   28 1   
    29   29   30 1   
    30   29   37 1   
    31   30   31 1   
    32   30   33 1   
    33   30   38 1   
    34   31   32 2   
    35   31   41 1   
    36   33   34 1   
    37   33   39 1   
    38   33   40 1   
    39   34   35 1   
    40   34   36 1   
    41   41   42 1   
    42   41   45 1   
    43   42   43 1   
    44   42   46 1   
    45   42   47 1   
    46   43   44 2   
    47   43   48 1   
    48   48   49 1   
    49   48   56 1   
    50   49   50 1   
    51   49   52 1   
    52   49   57 1   
    53   50   51 2   
    54   50   62 1   
    55   52   53 1   
    56   52   58 1   
    57   52   59 1   
    58   53   54 1   
    59   53   55 2   
    60   54   60 1   
    61   54   61 1   
    62   62   63 1   
    63   62   66 1   
    64   63   64 1   
    65   63   67 1   
    66   63   68 1   
    67   64   65 2   
    68   64   69 1   
    69   69   70 1   
    70   69   76 1   
    71   70   71 1   
    72   70   73 1   
    73   70   77 1   
    74   71   72 2   
    75   71   83 1   
    76   73   74 1   
    77   73   75 1   
    78   73   78 1   
    79   74   80 1   
    80   74   81 1   
    81   74   82 1   
    82   75   79 1   
    83   83   84 1   
    84   83   91 1   
    85   84   85 1   
    86   84   87 1   
    87   84   92 1   
    88   85   86 2   
    89   85  102 1   
    90   87   88 1   
    91   87   89 1   
    92   87   93 1   
    93   88   90 1   
    94   88   94 1   
    95   88   95 1   
    96   89   96 1   
    97   89   97 1   
    98   89   98 1   
    99   90   99 1   
   100   90  100 1   
   101   90  101 1   
   102  102  103 1   
   103  102  110 1   
   104  103  104 1   
   105  103  106 1   
   106  103  111 1   
   107  104  105 2   
   108  104  114 1   
   109  106  107 1   
   110  106  112 1   
   111  106  113 1   
   112  107  108 1   
   113  107  109 1   
   114  114  115 1   
   115  114  125 1   
   116  115  116 1   
   117  115  118 1   
   118  115  126 1   
   119  116  117 2   
   120  116  134 1   
   121  118  119 1   
   122  118  127 1   
   123  118  128 1   
   124  119  120 ar  
   125  119  121 ar  
   126  120  122 ar  
   127  120  129 1   
   128  121  123 ar  
   129  121  130 1   
   130  122  124 ar  
   131  122  131 1   
   132  123  124 ar  
   133  123  132 1   
   134  124  133 1   
   135  134  135 1   
   136  134  140 1   
   137  135  136 1   
   138  135  138 1   
   139  135  141 1   
   140  136  137 2   
   141  136  148 1   
   142  138  139 1   
   143  138  142 1   
   144  138  143 1   
   145  139  140 1   
   146  139  144 1   
   147  139  145 1   
   148  140  146 1   
   149  140  147 1   
   150  148  149 1   
   151  148  157 1   
   152  149  150 1   
   153  149  152 1   
   154  149  158 1   
   155  150  151 2   
   156  150  163 1   
   157  152  153 1   
   158  152  159 1   
   159  152  160 1   
   160  153  154 1   
   161  153  161 1   
   162  153  162 1   
   163  154  155 1   
   164  154  156 1   
   165  163  164 1   
   166  163  168 1   
   167  164  165 1   
   168  164  166 1   
   169  164  167 1   
   170  170  171 1   
   171  170  172 1   
@<TRIPOS>SUBSTRUCTURE
     1 MOL         1 TEMP              0 ****  ****    0 ROOT
