@<TRIPOS>MOLECULE
MOL
  186   183     1     0     0
SMALL
resp


@<TRIPOS>ATOM
      1 C1          0.7360   -2.0580    6.4120 c3        1 MOL     -0.462785
      2 C2          1.0930   -2.2110    4.8780 c         1 MOL      0.771854
      3 O1          0.4290   -2.7830    4.0630 o         1 MOL     -0.581548
      4 H1          1.6250   -1.7490    6.9630 hc        1 MOL      0.114361
      5 H2         -0.0430   -1.3040    6.5310 hc        1 MOL      0.114361
      6 H3          0.3810   -3.0120    6.8010 hc        1 MOL      0.114361
      7 N1          2.2710   -1.7280    4.4660 n         1 MOL     -0.660681
      8 C3          2.7190   -1.7260    3.0870 c3        1 MOL      0.310418
      9 C4          2.9430   -3.1830    2.6170 c         1 MOL      0.429971
     10 O2          3.8000   -3.9210    3.2100 o         1 MOL     -0.576060
     11 C5          3.8380   -0.6990    3.0120 c3        1 MOL     -0.221830
     12 C6          4.3880   -0.5210    1.6470 c         1 MOL      0.816099
     13 O3          5.5070    0.0200    1.5320 o         1 MOL     -0.719473
     14 O4          3.7590   -0.9210    0.6450 o         1 MOL     -0.719473
     15 H4          2.7870   -1.1210    5.0940 hn        1 MOL      0.299509
     16 H5          1.9850   -1.2310    2.4620 h1        1 MOL     -0.012453
     17 H6          4.6660   -0.9910    3.6550 hc        1 MOL      0.035075
     18 H7          3.4570    0.2570    3.3530 hc        1 MOL      0.035075
     19 N2          2.3680   -3.6050    1.4840 n         1 MOL     -0.132859
     20 C7          2.4520   -5.0090    0.9870 c3        1 MOL     -0.003750
     21 C8          3.4720   -5.3270   -0.1330 c         1 MOL      0.318654
     22 O5          4.2180   -6.3260    0.0240 o         1 MOL     -0.551162
     23 C9          1.0110   -5.5010    0.5540 c3        1 MOL      0.298095
     24 C10         0.1980   -5.7800    1.8030 c3        1 MOL     -0.086919
     25 C11         0.9750   -6.8230   -0.1810 c3        1 MOL     -0.229335
     26 C12        -1.3480   -5.9170    1.5530 c3        1 MOL     -0.050823
     27 H8          1.7590   -2.9880    0.9670 hn        1 MOL      0.138008
     28 H9          2.7670   -5.6930    1.7800 h1        1 MOL      0.046430
     29 H10         0.5420   -4.8350   -0.1770 hc        1 MOL     -0.004284
     30 H11         0.2520   -4.8190    2.3260 hc        1 MOL      0.010519
     31 H12         0.5280   -6.6740    2.3290 hc        1 MOL      0.010519
     32 H13         0.0300   -7.3570   -0.2330 hc        1 MOL      0.029694
     33 H14         1.3070   -6.6490   -1.2000 hc        1 MOL      0.029694
     34 H15         1.7120   -7.5000    0.2590 hc        1 MOL      0.029694
     35 H16        -1.9230   -5.7750    2.4620 hc        1 MOL      0.011363
     36 H17        -1.7680   -5.1910    0.8600 hc        1 MOL      0.011363
     37 H18        -1.6240   -6.8730    1.0990 hc        1 MOL      0.011363
     38 N3          3.4060   -4.5400   -1.1820 n         1 MOL     -0.086725
     39 C13         4.4110   -4.6380   -2.2180 c3        1 MOL     -0.096972
     40 C14         5.7390   -3.8480   -1.8840 c         1 MOL      0.408953
     41 O6          6.7460   -4.0360   -2.5810 o         1 MOL     -0.510930
     42 C15         3.7890   -4.0740   -3.5100 c3        1 MOL     -0.324193
     43 C16         3.1800   -2.7020   -3.3970 c         1 MOL      0.869039
     44 O7          3.2000   -1.9790   -2.3470 o         1 MOL     -0.725330
     45 O8          2.5620   -2.3430   -4.3690 o         1 MOL     -0.725330
     46 H19         2.7030   -3.8130   -1.2110 hn        1 MOL      0.182443
     47 H20         4.6540   -5.6950   -2.3040 h1        1 MOL      0.108944
     48 H21         3.0170   -4.7920   -3.8040 hc        1 MOL      0.085635
     49 H22         4.5710   -3.9690   -4.2500 hc        1 MOL      0.085635
     50 N4          5.8340   -3.1170   -0.7550 n         1 MOL     -0.027833
     51 C17         7.0270   -2.4530   -0.2660 c3        1 MOL     -0.371575
     52 C18         7.5480   -1.3450   -1.2290 c         1 MOL      0.687603
     53 O9          8.5560   -1.4890   -1.9230 o         1 MOL     -0.601236
     54 H23         4.9900   -2.7930   -0.2990 hn        1 MOL      0.117728
     55 H24         7.8060   -3.1470    0.0370 h1        1 MOL      0.127200
     56 H25         6.6360   -1.9460    0.6130 h1        1 MOL      0.127200
     57 N5          6.9290   -0.1900   -1.1790 n         1 MOL     -0.332008
     58 C19         7.2540    1.0880   -1.7400 c3        1 MOL      0.042822
     59 C20         7.3170    2.2810   -0.7860 c         1 MOL      0.345135
     60 O10         7.4510    3.4090   -1.2350 o         1 MOL     -0.503717
     61 C21         6.3650    1.3440   -2.9540 c3        1 MOL     -0.144830
     62 C22         4.8770    1.3710   -2.6880 c         1 MOL      0.682750
     63 O11         4.0820    1.0310   -3.5880 o         1 MOL     -0.694569
     64 O12         4.4400    1.7000   -1.5530 o         1 MOL     -0.694569
     65 H26         6.0680   -0.1390   -0.6460 hn        1 MOL      0.063229
     66 H27         8.2500    1.0080   -2.1780 h1        1 MOL      0.078729
     67 H28         6.6580    0.5130   -3.5970 hc        1 MOL      0.053614
     68 H29         6.6860    2.2480   -3.4810 hc        1 MOL      0.053614
     69 N6          7.2580    2.0730    0.5420 n         1 MOL     -0.236304
     70 C23         7.2750    3.2190    1.4790 c3        1 MOL     -0.167727
     71 C24         6.0010    4.1090    1.5280 c         1 MOL      0.540077
     72 O13         6.0430    5.2510    2.0230 o         1 MOL     -0.609715
     73 H30         7.2520    1.1050    0.8100 hn        1 MOL      0.255630
     74 H31         8.1180    3.8300    1.1450 h1        1 MOL      0.095169
     75 H32         7.5280    2.8260    2.4660 h1        1 MOL      0.095169
     76 N7          4.8870    3.6960    0.9360 n         1 MOL     -0.342589
     77 C25         3.5730    4.2690    0.9810 c3        1 MOL     -0.043977
     78 C26         2.5450    3.1490    1.1860 c         1 MOL      0.567737
     79 O14         2.7780    2.0290    0.6790 o         1 MOL     -0.617251
     80 C27         3.3350    5.1140   -0.2540 c3        1 MOL      0.045282
     81 C28         4.1430    6.4150   -0.1540 c3        1 MOL     -0.169644
     82 C29         3.7440    7.6170   -1.0540 c         1 MOL      0.606697
     83 N8          4.6160    8.1250   -1.8920 n         1 MOL     -0.774730
     84 O15         2.5910    8.0320   -1.0300 o         1 MOL     -0.571680
     85 H33         4.9300    2.7970    0.4750 hn        1 MOL      0.308376
     86 H34         3.5440    4.8940    1.8730 h1        1 MOL      0.084527
     87 H35         2.2880    5.4170   -0.1810 hc        1 MOL      0.031196
     88 H36         3.5400    4.6100   -1.1980 hc        1 MOL      0.031196
     89 H37         5.1880    6.1830   -0.3730 hc        1 MOL      0.064644
     90 H38         4.0540    6.7520    0.8740 hc        1 MOL      0.064644
     91 H39         5.4540    7.6040   -2.0880 hn        1 MOL      0.356333
     92 H40         4.3360    8.9950   -2.3310 hn        1 MOL      0.356333
     93 N9          1.4370    3.5730    1.8620 n         1 MOL     -0.474396
     94 C30         0.1830    2.8130    1.8560 c3        1 MOL      0.318773
     95 C31        -0.9550    3.2090    0.9570 c         1 MOL      0.321807
     96 O16        -1.3860    4.3490    0.9830 o         1 MOL     -0.581463
     97 C32        -0.3200    2.7420    3.3610 c3        1 MOL      0.238983
     98 C33        -1.5610    1.8750    3.6020 c3        1 MOL     -0.331386
     99 C34         0.7230    2.1910    4.4300 c3        1 MOL     -0.331386
    100 H41         1.4240    4.4510    2.3640 hn        1 MOL      0.265088
    101 H42         0.3680    1.7930    1.5040 h1        1 MOL      0.027219
    102 H43        -0.4850    3.7880    3.6420 hc        1 MOL     -0.047661
    103 H44        -1.4240    0.8630    3.2160 hc        1 MOL      0.069035
    104 H45        -1.8550    1.8340    4.6570 hc        1 MOL      0.069035
    105 H46        -2.2950    2.2840    2.9180 hc        1 MOL      0.069035
    106 H47         0.2730    2.1830    5.4200 hc        1 MOL      0.069035
    107 H48         1.0960    1.2260    4.0810 hc        1 MOL      0.069035
    108 H49         1.5970    2.8490    4.4750 hc        1 MOL      0.069035
    109 N10        -1.5390    2.2840    0.2070 n         1 MOL     -0.057932
    110 C35        -2.6890    2.4800   -0.7220 c3        1 MOL      0.123885
    111 C36        -4.0140    2.1280   -0.0270 c         1 MOL      0.446006
    112 O17        -4.0100    1.6060    1.1050 o         1 MOL     -0.369888
    113 C37        -2.3090    1.7220   -2.0120 c3        1 MOL     -0.331530
    114 C38        -3.3470    1.6870   -3.0970 c         1 MOL      0.555315
    115 N11        -3.7430    2.8440   -3.5690 n         1 MOL     -0.685967
    116 O18        -3.9320    0.6240   -3.4550 o         1 MOL     -0.522636
    117 H50        -1.0690    1.4100    0.0510 hn        1 MOL      0.065791
    118 H51        -2.7200    3.5530   -0.9250 h1        1 MOL      0.028338
    119 H52        -2.0280    0.6720   -1.9080 hc        1 MOL      0.168227
    120 H53        -1.4640    2.2620   -2.4480 hc        1 MOL      0.168227
    121 H54        -3.3870    3.7720   -3.3750 hn        1 MOL      0.333705
    122 H55        -4.4690    2.7970   -4.2840 hn        1 MOL      0.333705
    123 N12        -5.0400    2.4880   -0.7910 n         1 MOL     -0.543994
    124 C39        -6.4570    2.1680   -0.3490 c3        1 MOL      0.272017
    125 C40        -6.7230    0.6420   -0.0970 c         1 MOL      0.593497
    126 O19        -7.1070    0.2720    1.0180 o         1 MOL     -0.550166
    127 C41        -7.5080    2.8580   -1.2440 c3        1 MOL     -0.062904
    128 C42        -8.8920    2.7420   -0.6730 ca        1 MOL     -0.110683
    129 C43        -9.1920    3.4910    0.4210 ca        1 MOL     -0.038755
    130 C44        -9.7970    1.8270   -1.2500 ca        1 MOL     -0.038755
    131 C45       -10.5100    3.3750    0.9770 ca        1 MOL     -0.391227
    132 C46       -11.0560    1.6150   -0.6920 ca        1 MOL     -0.391227
    133 C47       -11.3860    2.3850    0.4480 ca        1 MOL      0.489366
    134 O20       -12.6750    2.3310    0.9100 oh        1 MOL     -0.566542
    135 H56        -4.9410    2.7350   -1.7660 hn        1 MOL      0.232528
    136 H57        -6.5450    2.6430    0.6220 h1        1 MOL      0.000539
    137 H58        -7.5170    2.3860   -2.2190 hc        1 MOL      0.030845
    138 H59        -7.2600    3.9180   -1.3770 hc        1 MOL      0.030845
    139 H60        -8.4950    4.2300    0.7690 ha        1 MOL      0.126542
    140 H61        -9.5080    1.3000   -2.1430 ha        1 MOL      0.126542
    141 H62       -10.8450    3.8480    1.8850 ha        1 MOL      0.178318
    142 H63       -11.7540    0.8980   -1.1240 ha        1 MOL      0.178318
    143 H64       -13.2010    1.8190    0.2810 ho        1 MOL      0.380573
    144 N13        -6.4610   -0.2710   -1.0460 n         1 MOL     -0.482855
    145 C48        -6.6730   -1.7420   -0.7690 c3        1 MOL     -0.044941
    146 C49        -5.6660   -2.2790    0.2830 c         1 MOL      0.266496
    147 O21        -5.9390   -3.3310    0.8800 o         1 MOL     -0.475808
    148 C50        -6.6580   -2.5610   -2.0660 c3        1 MOL      0.171638
    149 C51        -8.0640   -2.5840   -2.7220 c3        1 MOL     -0.170699
    150 C52        -8.1900   -3.4390   -3.9650 c         1 MOL      0.604792
    151 O22        -8.1010   -4.6960   -3.7640 o         1 MOL     -0.711379
    152 O23        -8.1000   -3.0240   -5.1420 o         1 MOL     -0.711379
    153 H65        -6.1870   -0.0030   -1.9820 hn        1 MOL      0.292216
    154 H66        -7.6720   -1.9010   -0.3770 h1        1 MOL      0.132308
    155 H67        -6.3930   -3.5640   -1.7480 hc        1 MOL      0.017133
    156 H68        -5.8580   -2.1220   -2.6750 hc        1 MOL      0.017133
    157 H69        -8.4340   -1.5750   -2.8680 hc        1 MOL     -0.009476
    158 H70        -8.6870   -3.0910   -1.9840 hc        1 MOL     -0.009476
    159 N14        -4.5160   -1.6530    0.5820 n         1 MOL     -0.169063
    160 C53        -3.5950   -2.0970    1.5990 c3        1 MOL     -0.011499
    161 C54        -4.0400   -1.7310    2.9770 c         1 MOL      0.334303
    162 O24        -3.8300   -2.4760    3.9370 o         1 MOL     -0.538839
    163 C55        -2.1400   -1.5330    1.3610 c3        1 MOL      0.243655
    164 C56        -1.5560   -1.8270    0.0180 c3        1 MOL     -0.027302
    165 C57        -0.1880   -1.2280   -0.1830 c         1 MOL      0.812104
    166 O25         0.8260   -1.9230   -0.4600 o         1 MOL     -0.803215
    167 O26         0.0960    0.0020   -0.0820 o         1 MOL     -0.803215
    168 H71        -4.3400   -0.8130    0.0550 hn        1 MOL      0.198545
    169 H72        -3.5380   -3.1890    1.6610 h1        1 MOL      0.105871
    170 H73        -1.4770   -1.8130    2.1680 hc        1 MOL     -0.034568
    171 H74        -2.1360   -0.4400    1.4370 hc        1 MOL     -0.034568
    172 H75        -2.2640   -1.4130   -0.6980 hc        1 MOL     -0.058337
    173 H76        -1.4980   -2.9260    0.0360 hc        1 MOL     -0.058337
    174 N15        -4.8420   -0.6730    3.0610 n         1 MOL      0.074625
    175 C58        -5.4410   -0.1050    4.3080 c3        1 MOL     -0.310544
    176 H77        -4.6460    0.1610    5.0040 h1        1 MOL      0.107224
    177 H78        -6.0200    0.7850    4.0620 h1        1 MOL      0.107224
    178 H79        -6.0940   -0.8470    4.7700 h1        1 MOL      0.107224
    179 H80        -4.8070   -0.0830    2.2410 hn        1 MOL     -0.020224
    180 Ca1         2.4460    0.1150   -1.1170 Ca        1 MOL      1.781077
    181 O27         0.8880   -0.2980   -3.4850 oh        1 MOL     -0.911579
    182 H81         0.0910   -0.5450   -3.9460 ho        1 MOL      0.422928
    183 H82         1.5700   -0.8370   -3.8780 ho        1 MOL      0.422928
    184 O28         1.9700    2.7270   -2.1280 oh        1 MOL     -0.911579
    185 H83         2.9140    2.6290   -1.9630 ho        1 MOL      0.422928
    186 H84         1.9130    3.0140   -3.0370 ho        1 MOL      0.422928
@<TRIPOS>BOND
     1    1    2 1   
     2    1    4 1   
     3    1    5 1   
     4    1    6 1   
     5    2    3 2   
     6    2    7 1   
     7    7    8 1   
     8    7   15 1   
     9    8    9 1   
    10    8   11 1   
    11    8   16 1   
    12    9   10 2   
    13    9   19 1   
    14   11   12 1   
    15   11   17 1   
    16   11   18 1   
    17   12   13 1   
    18   12   14 1   
    19   19   20 1   
    20   19   27 1   
    21   20   21 1   
    22   20   23 1   
    23   20   28 1   
    24   21   22 2   
    25   21   38 1   
    26   23   24 1   
    27   23   25 1   
    28   23   29 1   
    29   24   26 1   
    30   24   30 1   
    31   24   31 1   
    32   25   32 1   
    33   25   33 1   
    34   25   34 1   
    35   26   35 1   
    36   26   36 1   
    37   26   37 1   
    38   38   39 1   
    39   38   46 1   
    40   39   40 1   
    41   39   42 1   
    42   39   47 1   
    43   40   41 2   
    44   40   50 1   
    45   42   43 1   
    46   42   48 1   
    47   42   49 1   
    48   43   44 1   
    49   43   45 1   
    50   50   51 1   
    51   50   54 1   
    52   51   52 1   
    53   51   55 1   
    54   51   56 1   
    55   52   53 2   
    56   52   57 1   
    57   57   58 1   
    58   57   65 1   
    59   58   59 1   
    60   58   61 1   
    61   58   66 1   
    62   59   60 2   
    63   59   69 1   
    64   61   62 1   
    65   61   67 1   
    66   61   68 1   
    67   62   63 1   
    68   62   64 1   
    69   69   70 1   
    70   69   73 1   
    71   70   71 1   
    72   70   74 1   
    73   70   75 1   
    74   71   72 2   
    75   71   76 1   
    76   76   77 1   
    77   76   85 1   
    78   77   78 1   
    79   77   80 1   
    80   77   86 1   
    81   78   79 2   
    82   78   93 1   
    83   80   81 1   
    84   80   87 1   
    85   80   88 1   
    86   81   82 1   
    87   81   89 1   
    88   81   90 1   
    89   82   83 1   
    90   82   84 2   
    91   83   91 1   
    92   83   92 1   
    93   93   94 1   
    94   93  100 1   
    95   94   95 1   
    96   94   97 1   
    97   94  101 1   
    98   95   96 2   
    99   95  109 1   
   100   97   98 1   
   101   97   99 1   
   102   97  102 1   
   103   98  103 1   
   104   98  104 1   
   105   98  105 1   
   106   99  106 1   
   107   99  107 1   
   108   99  108 1   
   109  109  110 1   
   110  109  117 1   
   111  110  111 1   
   112  110  113 1   
   113  110  118 1   
   114  111  112 2   
   115  111  123 1   
   116  113  114 1   
   117  113  119 1   
   118  113  120 1   
   119  114  115 1   
   120  114  116 2   
   121  115  121 1   
   122  115  122 1   
   123  123  124 1   
   124  123  135 1   
   125  124  125 1   
   126  124  127 1   
   127  124  136 1   
   128  125  126 2   
   129  125  144 1   
   130  127  128 1   
   131  127  137 1   
   132  127  138 1   
   133  128  129 ar  
   134  128  130 ar  
   135  129  131 ar  
   136  129  139 1   
   137  130  132 ar  
   138  130  140 1   
   139  131  133 ar  
   140  131  141 1   
   141  132  133 ar  
   142  132  142 1   
   143  133  134 1   
   144  134  143 1   
   145  144  145 1   
   146  144  153 1   
   147  145  146 1   
   148  145  148 1   
   149  145  154 1   
   150  146  147 2   
   151  146  159 1   
   152  148  149 1   
   153  148  155 1   
   154  148  156 1   
   155  149  150 1   
   156  149  157 1   
   157  149  158 1   
   158  150  151 1   
   159  150  152 1   
   160  159  160 1   
   161  159  168 1   
   162  160  161 1   
   163  160  163 1   
   164  160  169 1   
   165  161  162 2   
   166  161  174 1   
   167  163  164 1   
   168  163  170 1   
   169  163  171 1   
   170  164  165 1   
   171  164  172 1   
   172  164  173 1   
   173  165  166 1   
   174  165  167 1   
   175  174  175 1   
   176  174  179 1   
   177  175  176 1   
   178  175  177 1   
   179  175  178 1   
   180  181  182 1   
   181  181  183 1   
   182  184  185 1   
   183  184  186 1   
@<TRIPOS>SUBSTRUCTURE
     1 MOL         1 TEMP              0 ****  ****    0 ROOT
