@<TRIPOS>MOLECULE
MOL
  179   176     1     0     0
SMALL
resp


@<TRIPOS>ATOM
      1 C1          1.3680    3.3370    6.8070 c3        1 MOL     -0.288913
      2 C2          1.2650    2.9640    5.3080 c         1 MOL      0.675602
      3 O1          2.3430    2.8490    4.7280 o         1 MOL     -0.571820
      4 H1          1.1610    2.4560    7.4160 hc        1 MOL      0.076992
      5 H2          2.3740    3.6980    7.0240 hc        1 MOL      0.076992
      6 H3          0.6430    4.1170    7.0390 hc        1 MOL      0.076992
      7 N1          0.1270    2.7230    4.6780 n         1 MOL     -0.580280
      8 C3          0.0030    2.2990    3.2910 c3        1 MOL      0.086007
      9 C4         -0.1330    3.5750    2.3860 c         1 MOL      0.463003
     10 O2         -0.9790    4.4180    2.6280 o         1 MOL     -0.478257
     11 C5         -1.3280    1.4520    3.0760 c3        1 MOL     -0.367415
     12 C6         -1.4780    1.0550    1.5760 c         1 MOL      1.090518
     13 O3         -0.5030    0.9560    0.8580 o         1 MOL     -0.901570
     14 O4         -2.6190    0.8260    1.1050 o         1 MOL     -0.901570
     15 H4         -0.7020    2.9750    5.1800 hn        1 MOL      0.323444
     16 H5          0.8080    1.6490    2.9570 h1        1 MOL      0.101514
     17 H6         -2.1780    2.0630    3.3760 hc        1 MOL      0.098905
     18 H7         -1.2610    0.4960    3.5900 hc        1 MOL      0.098905
     19 N2          0.7750    3.7410    1.3850 n         1 MOL     -0.171487
     20 C7          0.8540    4.9080    0.4220 c3        1 MOL     -0.121452
     21 C8         -0.4080    5.4240   -0.2010 c         1 MOL      0.442821
     22 O5         -0.5990    6.6350   -0.2660 o         1 MOL     -0.546193
     23 C9          1.8790    4.3790   -0.5780 c3        1 MOL     -0.053419
     24 C10         2.3110    5.4270   -1.6570 c3        1 MOL      0.064198
     25 C11         3.3690    4.8720   -2.6530 c3        1 MOL     -0.337262
     26 C12         3.3020    5.6160   -4.0050 c3        1 MOL      0.157647
     27 N3          4.3080    5.0560   -4.9050 n4        1 MOL     -0.369269
     28 H8          1.5960    3.1560    1.4430 hn        1 MOL      0.144634
     29 H9          1.3670    5.7110    0.9500 h1        1 MOL      0.102106
     30 H10         1.4370    3.4760   -0.9960 hc        1 MOL      0.079194
     31 H11         2.7470    4.0320   -0.0130 hc        1 MOL      0.079194
     32 H12         2.6470    6.3840   -1.2540 hc        1 MOL      0.024988
     33 H13         1.4420    5.5570   -2.3080 hc        1 MOL      0.024988
     34 H14         3.2330    3.7970   -2.7820 hc        1 MOL      0.123665
     35 H15         4.2380    5.1410   -2.0420 hc        1 MOL      0.123665
     36 H16         3.4340    6.6680   -3.7380 hx        1 MOL      0.073474
     37 H17         2.3260    5.6440   -4.4930 hx        1 MOL      0.073474
     38 H18         4.3970    5.5080   -5.8000 hn        1 MOL      0.326530
     39 H19         5.2010    4.9880   -4.4350 hn        1 MOL      0.326530
     40 H20         4.1060    4.0830   -5.1140 hn        1 MOL      0.326530
     41 N4         -1.3430    4.5540   -0.6440 n         1 MOL     -0.138006
     42 C13        -2.6660    4.9130   -0.9940 c3        1 MOL      0.067008
     43 C14        -3.8240    4.4860   -0.1300 c         1 MOL      0.420099
     44 O6         -4.9470    4.8490   -0.4440 o         1 MOL     -0.535109
     45 C15        -2.9590    4.2890   -2.3720 c3        1 MOL     -0.403540
     46 C16        -2.5260    2.8680   -2.6010 c         1 MOL      0.665047
     47 O7         -2.4280    2.2020   -1.5580 o         1 MOL     -0.687274
     48 O8         -2.0890    2.4300   -3.7210 o         1 MOL     -0.687274
     49 H21        -1.0520    3.5980   -0.5310 hn        1 MOL      0.188029
     50 H22        -2.6740    5.9980   -1.0300 h1        1 MOL      0.111194
     51 H23        -2.5300    4.9560   -3.1200 hc        1 MOL      0.110559
     52 H24        -4.0210    4.3580   -2.6030 hc        1 MOL      0.110559
     53 N5         -3.6390    3.6660    0.9490 n         1 MOL     -0.053515
     54 C17        -4.7020    3.3290    1.8800 c3        1 MOL     -0.141781
     55 C18        -5.7290    2.3570    1.2130 c         1 MOL      0.611677
     56 O9         -6.8770    2.3230    1.6940 o         1 MOL     -0.585444
     57 H25        -2.7140    3.2690    1.0060 hn        1 MOL     -0.066978
     58 H26        -5.2840    4.1850    2.2260 h1        1 MOL      0.092930
     59 H27        -4.3140    2.8130    2.7600 h1        1 MOL      0.092930
     60 N6         -5.3520    1.5870    0.1360 n         1 MOL     -0.315194
     61 C19        -6.2380    0.7620   -0.7000 c3        1 MOL     -0.319031
     62 C20        -6.7350   -0.5390   -0.0850 c         1 MOL      0.366308
     63 O10        -7.2770   -1.4000   -0.8150 o         1 MOL     -0.474282
     64 C21        -5.9410    0.7190   -2.1470 c3        1 MOL      0.029472
     65 C22        -4.6340    0.0320   -2.4540 c         1 MOL      0.648382
     66 N7         -4.2660   -0.0080   -3.6540 n         1 MOL     -0.822764
     67 O11        -3.9530   -0.4940   -1.5700 o         1 MOL     -0.569739
     68 H28        -4.3610    1.5960   -0.0750 hn        1 MOL      0.322694
     69 H29        -7.1690    1.3320   -0.7640 h1        1 MOL      0.187359
     70 H30        -6.0500    1.6910   -2.6480 hc        1 MOL      0.059365
     71 H31        -6.6880    0.2940   -2.8190 hc        1 MOL      0.059365
     72 H32        -4.8790    0.3560   -4.3620 hn        1 MOL      0.366593
     73 H33        -3.4020   -0.3950   -4.0230 hn        1 MOL      0.366593
     74 N8         -6.4170   -0.8620    1.1860 n         1 MOL     -0.071210
     75 C23        -6.7230   -2.0610    1.9160 c3        1 MOL     -0.415775
     76 C24        -5.6140   -3.0170    2.2280 c         1 MOL      0.720092
     77 O12        -5.7380   -3.8010    3.1550 o         1 MOL     -0.608539
     78 H34        -5.8230   -0.1750    1.6290 hn        1 MOL      0.195174
     79 H35        -7.4160   -2.6410    1.3140 h1        1 MOL      0.158261
     80 H36        -7.1560   -1.7490    2.8770 h1        1 MOL      0.158261
     81 N9         -4.5090   -2.8340    1.5780 n         1 MOL     -0.415209
     82 C25        -3.3280   -3.6800    1.6600 c3        1 MOL      0.008939
     83 C26        -2.0170   -2.8960    1.2900 c         1 MOL      0.471237
     84 O13        -1.9940   -1.9510    0.5130 o         1 MOL     -0.624393
     85 C27        -3.5270   -4.9100    0.6900 c3        1 MOL     -0.167812
     86 C28        -4.5330   -4.7490   -0.4540 ca        1 MOL      0.303373
     87 C29        -5.8160   -5.2550   -0.3180 ca        1 MOL     -0.384465
     88 C30        -4.0790   -4.2090   -1.6460 ca        1 MOL     -0.384465
     89 C31        -6.7180   -5.0340   -1.3580 ca        1 MOL     -0.087479
     90 C32        -4.9570   -4.0830   -2.6880 ca        1 MOL     -0.087479
     91 C33        -6.2900   -4.4460   -2.5370 ca        1 MOL      0.172449
     92 O14        -7.2240   -4.3280   -3.4750 oh        1 MOL     -0.430963
     93 H37        -4.4540   -2.0660    0.9100 hn        1 MOL      0.341732
     94 H38        -3.2610   -4.0140    2.6960 h1        1 MOL      0.091483
     95 H39        -3.8600   -5.7310    1.3150 hc        1 MOL      0.049483
     96 H40        -2.6120   -5.2540    0.2090 hc        1 MOL      0.049483
     97 H41        -6.2480   -5.7120    0.5620 ha        1 MOL      0.197973
     98 H42        -3.0690   -3.8650   -1.7830 ha        1 MOL      0.197973
     99 H43        -7.7440   -5.3670   -1.3520 ha        1 MOL      0.112603
    100 H44        -4.6200   -3.6910   -3.6330 ha        1 MOL      0.112603
    101 H45        -6.8460   -4.1050   -4.3270 ho        1 MOL      0.343756
    102 N10        -0.8720   -3.3080    1.8180 n         1 MOL     -0.385798
    103 C34         0.4120   -2.6190    1.7110 c3        1 MOL     -0.030505
    104 C35         1.4770   -3.6210    1.2680 c         1 MOL      0.486003
    105 O15         1.4400   -4.7730    1.7260 o         1 MOL     -0.535826
    106 C36         0.9200   -1.8940    3.0740 c3        1 MOL      0.087262
    107 C37         2.2760   -1.1840    2.7890 c3        1 MOL     -0.265351
    108 C38         1.0690   -2.8500    4.3360 c3        1 MOL     -0.469959
    109 C39         2.7560   -0.2960    3.9230 c3        1 MOL     -0.332557
    110 H46        -0.9850   -4.1010    2.4400 hn        1 MOL      0.289264
    111 H47         0.3410   -1.8190    0.9780 h1        1 MOL      0.178322
    112 H48         0.1780   -1.1360    3.2880 hc        1 MOL      0.076769
    113 H49         2.0390   -0.5600    1.9270 hc        1 MOL      0.118975
    114 H50         3.0120   -1.9680    2.5950 hc        1 MOL      0.118975
    115 H51         2.0300   -3.3730    4.2900 hc        1 MOL      0.132674
    116 H52         1.0320   -2.2480    5.2490 hc        1 MOL      0.132674
    117 H53         0.2090   -3.5120    4.3620 hc        1 MOL      0.132674
    118 H54         3.2760    0.5800    3.5490 hc        1 MOL      0.112402
    119 H55         1.9030   -0.0290    4.5360 hc        1 MOL      0.112402
    120 H56         3.4070   -0.7730    4.6640 hc        1 MOL      0.112402
    121 N11         2.2720   -3.1920    0.2670 n         1 MOL     -0.123742
    122 C40         3.3460   -3.9010   -0.4380 c3        1 MOL     -0.038902
    123 C41         4.7610   -3.4710   -0.0190 c         1 MOL      0.456705
    124 O16         4.9770   -2.4980    0.7220 o         1 MOL     -0.421564
    125 C42         3.1570   -3.7410   -1.8850 c3        1 MOL      0.044952
    126 O17         3.3190   -2.3910   -2.3650 oh        1 MOL     -0.564446
    127 H57         2.3060   -2.1860    0.1840 hn        1 MOL     -0.047225
    128 H58         3.1020   -4.9150   -0.1060 h1        1 MOL      0.065189
    129 H59         2.1670   -4.0650   -2.1990 h1        1 MOL      0.052757
    130 H60         3.8260   -4.3940   -2.4370 h1        1 MOL      0.052757
    131 H61         2.5820   -1.8190   -2.1260 ho        1 MOL      0.390396
    132 N12         5.7510   -4.2560   -0.4310 n         1 MOL     -0.368186
    133 C43         7.1150   -3.9770   -0.0120 c3        1 MOL      0.144309
    134 C44         7.7420   -2.7620   -0.6300 c         1 MOL      0.490537
    135 O18         8.4970   -2.0820    0.0900 o         1 MOL     -0.521487
    136 C45         7.8710   -5.2170   -0.3020 c3        1 MOL     -0.321003
    137 H62         5.4420   -5.1000   -0.8950 hn        1 MOL      0.260621
    138 H63         7.2160   -3.8680    1.0670 h1        1 MOL      0.096205
    139 H64         8.9030   -5.2230    0.0640 hc        1 MOL      0.095325
    140 H65         7.3830   -6.0240    0.2440 hc        1 MOL      0.095325
    141 H66         7.8750   -5.3270   -1.3870 hc        1 MOL      0.095325
    142 N13         7.3600   -2.3200   -1.8300 n         1 MOL     -0.453604
    143 C46         7.7710   -0.9840   -2.3210 c3        1 MOL      0.201770
    144 C47         7.1270    0.1420   -1.4320 c         1 MOL      0.276692
    145 O19         7.8250    1.1330   -1.0780 o         1 MOL     -0.505502
    146 C48         7.3900   -0.8780   -3.7900 c3        1 MOL     -0.385615
    147 H67         6.7900   -2.8710   -2.4510 hn        1 MOL      0.292003
    148 H68         8.8550   -0.8640   -2.2510 h1        1 MOL      0.090235
    149 H69         8.1600   -1.3630   -4.3690 hc        1 MOL      0.105657
    150 H70         6.4020   -1.2850   -4.0100 hc        1 MOL      0.105657
    151 H71         7.4620    0.1540   -4.1310 hc        1 MOL      0.105657
    152 N14         5.8760   -0.0000   -1.0580 n         1 MOL     -0.118878
    153 C49         5.1080    0.8990   -0.1250 c3        1 MOL     -0.193310
    154 C50         5.7610    0.9630    1.2850 c         1 MOL      0.488432
    155 O20         5.5770    1.9490    2.0430 o         1 MOL     -0.542569
    156 C51         3.6090    0.5380   -0.1540 c3        1 MOL     -0.095102
    157 C52         3.0990    0.7270   -1.6340 c3        1 MOL     -0.055715
    158 C53         1.6350    0.2500   -1.7100 c         1 MOL      0.641356
    159 O21         1.2810   -0.9010   -1.3900 o         1 MOL     -0.685518
    160 O22         0.7670    1.0380   -2.1130 o         1 MOL     -0.685518
    161 H72         5.4780   -0.8970   -1.2940 hn        1 MOL      0.189586
    162 H73         5.1680    1.8840   -0.5890 h1        1 MOL      0.082452
    163 H74         3.1260    1.2680    0.4820 hc        1 MOL      0.125281
    164 H75         3.4600   -0.5070    0.1500 hc        1 MOL      0.125281
    165 H76         3.6970    0.0870   -2.2820 hc        1 MOL     -0.022612
    166 H77         3.0840    1.7840   -1.9070 hc        1 MOL     -0.022612
    167 N15         6.3040   -0.2000    1.7020 n         1 MOL     -0.006025
    168 C54         7.0890   -0.4290    2.9030 c3        1 MOL     -0.267388
    169 H78         6.6850   -1.2850    3.4430 h1        1 MOL      0.103403
    170 H79         8.1250   -0.6290    2.6280 h1        1 MOL      0.103403
    171 H80         7.0470    0.4550    3.5390 h1        1 MOL      0.103403
    172 H81         6.0970   -1.0100    1.1350 hn        1 MOL      0.089750
    173 Ca1        -1.3260   -0.1320   -1.2050 Ca        1 MOL      1.780415
    174 O23        -1.3320   -0.1030   -3.9680 oh        1 MOL     -0.809552
    175 H82        -0.9460   -0.5050   -4.7520 ho        1 MOL      0.396767
    176 H83        -1.2730    0.8340   -4.1400 ho        1 MOL      0.396767
    177 O24        -1.1180   -2.5710   -2.1790 oh        1 MOL     -0.809552
    178 H84        -1.1700   -2.9950   -3.0400 ho        1 MOL      0.396767
    179 H85        -0.7850   -3.2540   -1.6050 ho        1 MOL      0.396767
@<TRIPOS>BOND
     1    1    2 1   
     2    1    4 1   
     3    1    5 1   
     4    1    6 1   
     5    2    3 2   
     6    2    7 1   
     7    7    8 1   
     8    7   15 1   
     9    8    9 1   
    10    8   11 1   
    11    8   16 1   
    12    9   10 2   
    13    9   19 1   
    14   11   12 1   
    15   11   17 1   
    16   11   18 1   
    17   12   13 1   
    18   12   14 1   
    19   19   20 1   
    20   19   28 1   
    21   20   21 1   
    22   20   23 1   
    23   20   29 1   
    24   21   22 2   
    25   21   41 1   
    26   23   24 1   
    27   23   30 1   
    28   23   31 1   
    29   24   25 1   
    30   24   32 1   
    31   24   33 1   
    32   25   26 1   
    33   25   34 1   
    34   25   35 1   
    35   26   27 1   
    36   26   36 1   
    37   26   37 1   
    38   27   38 1   
    39   27   39 1   
    40   27   40 1   
    41   41   42 1   
    42   41   49 1   
    43   42   43 1   
    44   42   45 1   
    45   42   50 1   
    46   43   44 2   
    47   43   53 1   
    48   45   46 1   
    49   45   51 1   
    50   45   52 1   
    51   46   47 1   
    52   46   48 1   
    53   53   54 1   
    54   53   57 1   
    55   54   55 1   
    56   54   58 1   
    57   54   59 1   
    58   55   56 2   
    59   55   60 1   
    60   60   61 1   
    61   60   68 1   
    62   61   62 1   
    63   61   64 1   
    64   61   69 1   
    65   62   63 2   
    66   62   74 1   
    67   64   65 1   
    68   64   70 1   
    69   64   71 1   
    70   65   66 1   
    71   65   67 2   
    72   66   72 1   
    73   66   73 1   
    74   74   75 1   
    75   74   78 1   
    76   75   76 1   
    77   75   79 1   
    78   75   80 1   
    79   76   77 2   
    80   76   81 1   
    81   81   82 1   
    82   81   93 1   
    83   82   83 1   
    84   82   85 1   
    85   82   94 1   
    86   83   84 2   
    87   83  102 1   
    88   85   86 1   
    89   85   95 1   
    90   85   96 1   
    91   86   87 ar  
    92   86   88 ar  
    93   87   89 ar  
    94   87   97 1   
    95   88   90 ar  
    96   88   98 1   
    97   89   91 ar  
    98   89   99 1   
    99   90   91 ar  
   100   90  100 1   
   101   91   92 1   
   102   92  101 1   
   103  102  103 1   
   104  102  110 1   
   105  103  104 1   
   106  103  106 1   
   107  103  111 1   
   108  104  105 2   
   109  104  121 1   
   110  106  107 1   
   111  106  108 1   
   112  106  112 1   
   113  107  109 1   
   114  107  113 1   
   115  107  114 1   
   116  108  115 1   
   117  108  116 1   
   118  108  117 1   
   119  109  118 1   
   120  109  119 1   
   121  109  120 1   
   122  121  122 1   
   123  121  127 1   
   124  122  123 1   
   125  122  125 1   
   126  122  128 1   
   127  123  124 2   
   128  123  132 1   
   129  125  126 1   
   130  125  129 1   
   131  125  130 1   
   132  126  131 1   
   133  132  133 1   
   134  132  137 1   
   135  133  134 1   
   136  133  136 1   
   137  133  138 1   
   138  134  135 2   
   139  134  142 1   
   140  136  139 1   
   141  136  140 1   
   142  136  141 1   
   143  142  143 1   
   144  142  147 1   
   145  143  144 1   
   146  143  146 1   
   147  143  148 1   
   148  144  145 2   
   149  144  152 1   
   150  146  149 1   
   151  146  150 1   
   152  146  151 1   
   153  152  153 1   
   154  152  161 1   
   155  153  154 1   
   156  153  156 1   
   157  153  162 1   
   158  154  155 2   
   159  154  167 1   
   160  156  157 1   
   161  156  163 1   
   162  156  164 1   
   163  157  158 1   
   164  157  165 1   
   165  157  166 1   
   166  158  159 1   
   167  158  160 1   
   168  167  168 1   
   169  167  172 1   
   170  168  169 1   
   171  168  170 1   
   172  168  171 1   
   173  174  175 1   
   174  174  176 1   
   175  177  178 1   
   176  177  179 1   
@<TRIPOS>SUBSTRUCTURE
     1 MOL         1 TEMP              0 ****  ****    0 ROOT
