@<TRIPOS>MOLECULE
MOL
  189   185     1     0     0
SMALL
resp


@<TRIPOS>ATOM
      1 C1         -0.1260   -3.6170    5.9640 c3        1 MOL     -0.248380
      2 C2          0.6920   -3.1490    4.7200 c         1 MOL      0.685101
      3 O1          0.8710   -1.9650    4.4130 o         1 MOL     -0.585760
      4 H1         -1.1270   -3.1880    5.9230 hc        1 MOL      0.063162
      5 H2         -0.1970   -4.7050    5.9650 hc        1 MOL      0.063162
      6 H3          0.3740   -3.2850    6.8740 hc        1 MOL      0.063162
      7 N1          1.2460   -4.1210    3.9800 n         1 MOL     -0.521929
      8 C3          2.1680   -3.8450    2.8630 c3        1 MOL      0.224770
      9 C4          2.1880   -5.0440    1.8680 c         1 MOL      0.506929
     10 O2          2.4000   -6.1590    2.2440 o         1 MOL     -0.574431
     11 C5          3.5400   -3.3160    3.3720 c3        1 MOL     -0.376884
     12 C6          4.4150   -2.7430    2.2250 c         1 MOL      0.820302
     13 O3          5.5740   -2.3740    2.5110 o         1 MOL     -0.703243
     14 O4          3.9560   -2.3710    1.0930 o         1 MOL     -0.703243
     15 H4          1.0490   -5.0800    4.2460 hn        1 MOL      0.282121
     16 H5          1.6590   -3.0520    2.3180 h1        1 MOL     -0.007481
     17 H6          4.1920   -4.1150    3.7310 hc        1 MOL      0.087946
     18 H7          3.4490   -2.5750    4.1700 hc        1 MOL      0.087946
     19 N2          2.0240   -4.7330    0.5990 n         1 MOL     -0.483475
     20 C7          1.9840   -5.7270   -0.4940 c3        1 MOL      0.021810
     21 C8          2.9040   -5.3850   -1.6550 c         1 MOL      0.340850
     22 O5          3.0140   -6.2560   -2.5570 o         1 MOL     -0.568853
     23 C9          0.4650   -6.1790   -0.7730 c3        1 MOL      0.168188
     24 C10        -0.3220   -5.0550   -1.6380 c3        1 MOL      0.106937
     25 C11        -0.4000   -6.4620    0.4490 c3        1 MOL     -0.354651
     26 C12         0.2150   -4.7890   -3.0830 c3        1 MOL     -0.387107
     27 H8          2.1380   -3.7490    0.4060 hn        1 MOL      0.535181
     28 H9          2.4240   -6.6480   -0.1000 h1        1 MOL      0.093340
     29 H10         0.5650   -7.1000   -1.3520 hc        1 MOL     -0.017916
     30 H11        -0.3870   -4.1360   -1.0480 hc        1 MOL      0.002055
     31 H12        -1.3400   -5.4080   -1.7650 hc        1 MOL      0.002055
     32 H13         0.1470   -7.1900    1.0430 hc        1 MOL      0.077191
     33 H14        -0.5550   -5.5610    1.0280 hc        1 MOL      0.077191
     34 H15        -1.3770   -6.7900    0.1220 hc        1 MOL      0.077191
     35 H16         0.9450   -3.9840   -2.9580 hc        1 MOL      0.104735
     36 H17         0.6170   -5.6600   -3.6030 hc        1 MOL      0.104735
     37 H18        -0.5670   -4.3050   -3.6790 hc        1 MOL      0.104735
     38 N3          3.5520   -4.2450   -1.6820 n         1 MOL     -0.046905
     39 C13         4.5000   -3.7740   -2.7120 c3        1 MOL     -0.194537
     40 C14         5.7990   -3.0170   -2.2800 c         1 MOL      0.412114
     41 O6          6.7150   -2.8270   -3.1130 o         1 MOL     -0.522536
     42 C15         3.7980   -2.8370   -3.6550 c3        1 MOL     -0.027072
     43 C16         2.9560   -1.7000   -3.0000 c         1 MOL      0.701645
     44 O7          3.1870   -1.3140   -1.8170 o         1 MOL     -0.675760
     45 O8          2.2270   -1.2180   -3.8290 o         1 MOL     -0.675760
     46 H19         3.4040   -3.5550   -0.9550 hn        1 MOL     -0.007769
     47 H20         4.7320   -4.6420   -3.3320 h1        1 MOL      0.137050
     48 H21         3.2350   -3.4410   -4.3550 hc        1 MOL      0.014580
     49 H22         4.5870   -2.2750   -4.1540 hc        1 MOL      0.014580
     50 N4          5.9580   -2.7180   -0.9630 n         1 MOL     -0.196857
     51 C17         7.1700   -2.1100   -0.4750 c3        1 MOL     -0.128195
     52 C18         7.5520   -0.6540   -0.8900 c         1 MOL      0.419702
     53 O9          8.7620   -0.3170   -0.9110 o         1 MOL     -0.576234
     54 H23         5.1780   -2.7210   -0.3290 hn        1 MOL      0.136899
     55 H24         7.9890   -2.7910   -0.6940 h1        1 MOL      0.084841
     56 H25         7.0930   -2.0560    0.6090 h1        1 MOL      0.084841
     57 N5          6.5600    0.1520   -1.3760 n         1 MOL     -0.107151
     58 C19         6.7480    1.5110   -1.9280 c3        1 MOL     -0.230951
     59 C20         7.1890    2.6620   -0.9530 c         1 MOL      0.465667
     60 O10         7.5560    3.7390   -1.4440 o         1 MOL     -0.535585
     61 C21         5.5750    1.9760   -2.7750 c3        1 MOL     -0.268349
     62 C22         4.1780    2.0630   -2.1450 c         1 MOL      0.745586
     63 O11         3.9260    1.4850   -1.0450 o         1 MOL     -0.671562
     64 O12         3.2190    2.5010   -2.8250 o         1 MOL     -0.671562
     65 H26         5.6230   -0.2010   -1.2550 hn        1 MOL      0.225632
     66 H27         7.5860    1.3900   -2.6200 h1        1 MOL      0.150258
     67 H28         5.4520    1.1730   -3.4990 hc        1 MOL      0.107050
     68 H29         5.8260    2.8880   -3.3130 hc        1 MOL      0.107050
     69 N6          6.9990    2.5060    0.3250 n         1 MOL     -0.226454
     70 C23         7.0630    3.4860    1.3280 c3        1 MOL     -0.129848
     71 C24         5.8230    4.4850    1.4270 c         1 MOL      0.600302
     72 O13         5.9580    5.5070    2.0620 o         1 MOL     -0.595899
     73 H30         6.6650    1.5980    0.6280 hn        1 MOL      0.224932
     74 H31         7.8290    4.2220    1.1200 h1        1 MOL      0.066960
     75 H32         7.2540    3.0860    2.3300 h1        1 MOL      0.066960
     76 N7          4.6930    4.0480    0.8370 n         1 MOL     -0.327276
     77 C25         3.3770    4.6830    1.0130 c3        1 MOL     -0.062144
     78 C26         2.3410    3.6030    1.5340 c         1 MOL      0.375923
     79 O14         2.5990    2.3970    1.6310 o         1 MOL     -0.465536
     80 C27         2.9750    5.3790   -0.2830 c3        1 MOL      0.091988
     81 C28         3.7530    6.5640   -0.6560 c3        1 MOL     -0.063694
     82 C29         3.2940    7.2760   -1.9490 c         1 MOL      0.567902
     83 N8          4.2600    7.7680   -2.7590 n         1 MOL     -0.751486
     84 O15         2.1150    7.2710   -2.2690 o         1 MOL     -0.533478
     85 H33         4.7380    3.1110    0.4680 hn        1 MOL      0.214015
     86 H34         3.4590    5.3310    1.8820 h1        1 MOL      0.081018
     87 H35         1.9320    5.6800   -0.2740 hc        1 MOL      0.020701
     88 H36         3.0930    4.6150   -1.0400 hc        1 MOL      0.020701
     89 H37         4.8280    6.3600   -0.6730 hc        1 MOL      0.010239
     90 H38         3.5630    7.3000    0.1250 hc        1 MOL      0.010239
     91 H39         5.1820    7.9420   -2.3860 hn        1 MOL      0.344499
     92 H40         3.9020    8.1080   -3.6450 hn        1 MOL      0.344499
     93 N9          1.0920    3.9670    1.6670 n         1 MOL     -0.279860
     94 C30        -0.1080    3.1020    1.9190 c3        1 MOL     -0.045797
     95 C31        -1.1180    3.3140    0.8150 c         1 MOL      0.365199
     96 O16        -1.5090    4.4910    0.6400 o         1 MOL     -0.569458
     97 C32        -0.7230    3.3360    3.2770 c3        1 MOL      0.435625
     98 C33        -1.7030    2.2900    3.6500 c3        1 MOL     -0.465153
     99 C34         0.4500    3.3090    4.2980 c3        1 MOL     -0.465153
    100 H41         0.8140    4.9370    1.6250 hn        1 MOL      0.238859
    101 H42         0.2310    2.0660    1.7940 h1        1 MOL      0.116781
    102 H43        -1.0980    4.3550    3.3670 hc        1 MOL     -0.068687
    103 H44        -2.4630    2.1550    2.8840 hc        1 MOL      0.097215
    104 H45        -1.2160    1.3240    3.8010 hc        1 MOL      0.097215
    105 H46        -2.2140    2.4490    4.6020 hc        1 MOL      0.097215
    106 H47         1.0900    4.1580    4.0840 hc        1 MOL      0.097215
    107 H48         0.0520    3.4310    5.3030 hc        1 MOL      0.097215
    108 H49         0.9790    2.3860    4.0790 hc        1 MOL      0.097215
    109 N10        -1.5080    2.3350    0.0410 n         1 MOL     -0.197726
    110 C35        -2.6500    2.5800   -0.8110 c3        1 MOL      0.034855
    111 C36        -3.9840    2.4890    0.0140 c         1 MOL      0.272315
    112 O17        -3.9440    1.8040    1.0520 o         1 MOL     -0.232536
    113 C37        -2.6750    1.5540   -2.0260 c3        1 MOL     -0.230884
    114 C38        -3.7640    1.7610   -3.0020 c         1 MOL      0.825401
    115 N11        -3.7840    2.9140   -3.5730 n         1 MOL     -0.878623
    116 O18        -4.4710    0.8210   -3.3190 o         1 MOL     -0.607384
    117 H50        -1.1050    1.4130    0.0940 hn        1 MOL      0.426147
    118 H51        -2.6350    3.5380   -1.3280 h1        1 MOL      0.035590
    119 H52        -2.6040    0.5250   -1.6940 hc        1 MOL      0.091548
    120 H53        -1.7130    1.7320   -2.5130 hc        1 MOL      0.091548
    121 H54        -3.2380    3.6990   -3.2580 hn        1 MOL      0.379391
    122 H55        -4.2560    2.9630   -4.4630 hn        1 MOL      0.379391
    123 N12        -5.1840    2.8790   -0.5470 n         1 MOL     -0.378204
    124 C39        -6.4860    2.4290   -0.1230 c3        1 MOL      0.182051
    125 C40        -6.6170    0.9030    0.1010 c         1 MOL      0.584400
    126 O19        -6.9920    0.4610    1.1570 o         1 MOL     -0.594864
    127 C41        -7.5560    2.8410   -1.1060 c3        1 MOL     -0.192662
    128 C42        -8.9650    2.2980   -0.7820 ca        1 MOL      0.049434
    129 C43        -9.7940    2.9320    0.2020 ca        1 MOL     -0.174545
    130 C44        -9.5760    1.2790   -1.5720 ca        1 MOL     -0.174545
    131 C45       -11.1510    2.4940    0.3460 ca        1 MOL     -0.306919
    132 C46       -10.8820    0.7900   -1.3300 ca        1 MOL     -0.306919
    133 C47       -11.6710    1.4090   -0.4120 ca        1 MOL      0.436666
    134 O20       -12.9610    1.1070   -0.3220 oh        1 MOL     -0.539647
    135 H56        -5.0820    3.5790   -1.2680 hn        1 MOL      0.233448
    136 H57        -6.7070    2.8800    0.8420 h1        1 MOL      0.016684
    137 H58        -7.3360    2.4800   -2.1170 hc        1 MOL      0.064303
    138 H59        -7.5790    3.9260   -1.2130 hc        1 MOL      0.064303
    139 H60        -9.4390    3.8010    0.7390 ha        1 MOL      0.147080
    140 H61        -8.9590    0.8020   -2.3150 ha        1 MOL      0.147080
    141 H62       -11.8670    2.9230    1.0360 ha        1 MOL      0.152925
    142 H63       -11.1720   -0.0100   -1.9970 ha        1 MOL      0.152925
    143 H64       -13.1310    0.5530   -1.0890 ho        1 MOL      0.375579
    144 N13        -6.1660    0.0710   -0.7940 n         1 MOL     -0.144692
    145 C48        -6.1170   -1.4180   -0.7430 c3        1 MOL     -0.210504
    146 C49        -5.1620   -2.0890    0.2260 c         1 MOL      0.365962
    147 O21        -5.2130   -3.2910    0.5520 o         1 MOL     -0.518876
    148 C50        -5.7590   -1.8420   -2.1830 c3        1 MOL      0.289809
    149 C51        -6.0100   -3.3250   -2.4720 c3        1 MOL     -0.444638
    150 C52        -5.9040   -3.6980   -3.9780 c         1 MOL      0.811502
    151 O22        -6.0490   -2.8300   -4.8260 o         1 MOL     -0.760685
    152 O23        -5.8170   -4.8740   -4.3590 o         1 MOL     -0.760685
    153 H65        -5.8790    0.5620   -1.6280 hn        1 MOL      0.091508
    154 H66        -7.1030   -1.8670   -0.6400 h1        1 MOL      0.125259
    155 H67        -4.7460   -1.5720   -2.4710 hc        1 MOL      0.001068
    156 H68        -6.5190   -1.3060   -2.7570 hc        1 MOL      0.001068
    157 H69        -6.9550   -3.6290   -2.0010 hc        1 MOL      0.068914
    158 H70        -5.2060   -3.8900   -2.0050 hc        1 MOL      0.068914
    159 N14        -4.3810   -1.2970    0.9750 n         1 MOL      0.038838
    160 C53        -3.6370   -1.6860    2.2240 c3        1 MOL     -0.014615
    161 C54        -4.2640   -1.0660    3.4810 c         1 MOL      0.408493
    162 O24        -4.4430   -1.6910    4.4910 o         1 MOL     -0.539676
    163 C55        -2.1940   -1.3460    2.0770 c3        1 MOL      0.137527
    164 C56        -1.4550   -1.8770    0.7570 c3        1 MOL     -0.153229
    165 C57        -0.0950   -1.3720    0.3420 c         1 MOL      1.134815
    166 O25         0.9160   -2.0840    0.4760 o         1 MOL     -0.973560
    167 O26         0.0290   -0.2170   -0.0730 o         1 MOL     -0.973560
    168 H71        -4.3410   -0.3040    0.8090 hn        1 MOL     -0.054816
    169 H72        -3.7130   -2.7570    2.3760 h1        1 MOL      0.073572
    170 H73        -1.6060   -1.5750    2.9640 hc        1 MOL     -0.061222
    171 H74        -2.2130   -0.2700    1.8690 hc        1 MOL     -0.061222
    172 H75        -2.0860   -1.6190   -0.1000 hc        1 MOL      0.002262
    173 H76        -1.4050   -2.9670    0.8080 hc        1 MOL      0.002262
    174 N15        -4.6720    0.2500    3.4440 n         1 MOL      0.030175
    175 C58        -5.4230    0.9260    4.4970 c3        1 MOL     -0.382148
    176 H77        -6.4630    0.6030    4.4640 h1        1 MOL      0.116443
    177 H78        -4.9960    0.6740    5.4680 h1        1 MOL      0.116443
    178 H79        -5.3730    2.0040    4.3450 h1        1 MOL      0.116443
    179 H80        -4.6670    0.6910    2.5390 hn        1 MOL      0.035913
    180 Ca1         2.6820   -0.0210    0.4180 Ca        1 MOL      1.775931
    181 O27         2.1230   -0.2350    2.9080 oh        1 MOL     -0.977198
    182 H81         1.6020   -0.9030    3.3500 ho        1 MOL      0.446022
    183 H82         2.5550    0.2360    3.6100 ho        1 MOL      0.446022
    184 O28         1.2050    1.9990   -1.2400 oh        1 MOL     -0.977198
    185 H83         0.5730    1.8990   -1.9600 ho        1 MOL      0.446022
    186 H84         2.0360    2.1470   -1.6850 ho        1 MOL      0.446022
    187 O29         5.2190    0.1730    1.6610 oh        1 MOL     -0.977198
    188 H85         5.8620    0.5060    2.2960 ho        1 MOL      0.446022
    189 H86         5.3520   -0.7770    1.6580 ho        1 MOL      0.446022
@<TRIPOS>BOND
     1    1    2 1   
     2    1    4 1   
     3    1    5 1   
     4    1    6 1   
     5    2    3 2   
     6    2    7 1   
     7    7    8 1   
     8    7   15 1   
     9    8    9 1   
    10    8   11 1   
    11    8   16 1   
    12    9   10 2   
    13    9   19 1   
    14   11   12 1   
    15   11   17 1   
    16   11   18 1   
    17   12   13 1   
    18   12   14 1   
    19   19   20 1   
    20   19   27 1   
    21   20   21 1   
    22   20   23 1   
    23   20   28 1   
    24   21   22 2   
    25   21   38 1   
    26   23   24 1   
    27   23   25 1   
    28   23   29 1   
    29   24   26 1   
    30   24   30 1   
    31   24   31 1   
    32   25   32 1   
    33   25   33 1   
    34   25   34 1   
    35   26   35 1   
    36   26   36 1   
    37   26   37 1   
    38   38   39 1   
    39   38   46 1   
    40   39   40 1   
    41   39   42 1   
    42   39   47 1   
    43   40   41 2   
    44   40   50 1   
    45   42   43 1   
    46   42   48 1   
    47   42   49 1   
    48   43   44 1   
    49   43   45 1   
    50   50   51 1   
    51   50   54 1   
    52   51   52 1   
    53   51   55 1   
    54   51   56 1   
    55   52   53 2   
    56   52   57 1   
    57   57   58 1   
    58   57   65 1   
    59   58   59 1   
    60   58   61 1   
    61   58   66 1   
    62   59   60 2   
    63   59   69 1   
    64   61   62 1   
    65   61   67 1   
    66   61   68 1   
    67   62   63 1   
    68   62   64 1   
    69   69   70 1   
    70   69   73 1   
    71   70   71 1   
    72   70   74 1   
    73   70   75 1   
    74   71   72 2   
    75   71   76 1   
    76   76   77 1   
    77   76   85 1   
    78   77   78 1   
    79   77   80 1   
    80   77   86 1   
    81   78   79 2   
    82   78   93 1   
    83   80   81 1   
    84   80   87 1   
    85   80   88 1   
    86   81   82 1   
    87   81   89 1   
    88   81   90 1   
    89   82   83 1   
    90   82   84 2   
    91   83   91 1   
    92   83   92 1   
    93   93   94 1   
    94   93  100 1   
    95   94   95 1   
    96   94   97 1   
    97   94  101 1   
    98   95   96 2   
    99   95  109 1   
   100   97   98 1   
   101   97   99 1   
   102   97  102 1   
   103   98  103 1   
   104   98  104 1   
   105   98  105 1   
   106   99  106 1   
   107   99  107 1   
   108   99  108 1   
   109  109  110 1   
   110  109  117 1   
   111  110  111 1   
   112  110  113 1   
   113  110  118 1   
   114  111  112 2   
   115  111  123 1   
   116  113  114 1   
   117  113  119 1   
   118  113  120 1   
   119  114  115 1   
   120  114  116 2   
   121  115  121 1   
   122  115  122 1   
   123  123  124 1   
   124  123  135 1   
   125  124  125 1   
   126  124  127 1   
   127  124  136 1   
   128  125  126 2   
   129  125  144 1   
   130  127  128 1   
   131  127  137 1   
   132  127  138 1   
   133  128  129 ar  
   134  128  130 ar  
   135  129  131 ar  
   136  129  139 1   
   137  130  132 ar  
   138  130  140 1   
   139  131  133 ar  
   140  131  141 1   
   141  132  133 ar  
   142  132  142 1   
   143  133  134 1   
   144  134  143 1   
   145  144  145 1   
   146  144  153 1   
   147  145  146 1   
   148  145  148 1   
   149  145  154 1   
   150  146  147 2   
   151  146  159 1   
   152  148  149 1   
   153  148  155 1   
   154  148  156 1   
   155  149  150 1   
   156  149  157 1   
   157  149  158 1   
   158  150  151 1   
   159  150  152 1   
   160  159  160 1   
   161  159  168 1   
   162  160  161 1   
   163  160  163 1   
   164  160  169 1   
   165  161  162 2   
   166  161  174 1   
   167  163  164 1   
   168  163  170 1   
   169  163  171 1   
   170  164  165 1   
   171  164  172 1   
   172  164  173 1   
   173  165  166 1   
   174  165  167 1   
   175  174  175 1   
   176  174  179 1   
   177  175  176 1   
   178  175  177 1   
   179  175  178 1   
   180  181  182 1   
   181  181  183 1   
   182  184  185 1   
   183  184  186 1   
   184  187  188 1   
   185  187  189 1   
@<TRIPOS>SUBSTRUCTURE
     1 MOL         1 TEMP              0 ****  ****    0 ROOT
