@<TRIPOS>MOLECULE
MOL
  179   176     1     0     0
SMALL
resp


@<TRIPOS>ATOM
      1 C1         -0.9660    4.9160    5.8760 c3        1 MOL     -0.405978
      2 C2         -0.8350    4.4240    4.4540 c         1 MOL      0.748481
      3 O1          0.0850    4.8360    3.7270 o         1 MOL     -0.668904
      4 H1         -1.7810    4.3860    6.3700 hc        1 MOL      0.108508
      5 H2         -0.0350    4.7300    6.4130 hc        1 MOL      0.108508
      6 H3         -1.1770    5.9860    5.8730 hc        1 MOL      0.108508
      7 N1         -1.7710    3.6180    3.9650 n         1 MOL     -0.547628
      8 C3         -1.8670    3.1840    2.5660 c3        1 MOL     -0.035671
      9 C4         -2.3250    4.3660    1.5970 c         1 MOL      0.633201
     10 O2         -3.4750    4.7640    1.5800 o         1 MOL     -0.475174
     11 C5         -2.6610    1.8900    2.4720 c3        1 MOL     -0.140492
     12 C6         -2.5730    1.3030    1.0370 c         1 MOL      0.595587
     13 O3         -1.8890    1.8530    0.1740 o         1 MOL     -0.724983
     14 O4         -3.2290    0.2920    0.6960 o         1 MOL     -0.724983
     15 H4         -2.5570    3.4940    4.5880 hn        1 MOL      0.312256
     16 H5         -0.8450    2.9450    2.2610 h1        1 MOL      0.118197
     17 H6         -3.7160    2.0060    2.7140 hc        1 MOL      0.075989
     18 H7         -2.3300    1.1190    3.1680 hc        1 MOL      0.075989
     19 N2         -1.2750    4.9320    0.8480 n         1 MOL     -0.440424
     20 C7         -1.4410    6.1040   -0.0460 c3        1 MOL     -0.068722
     21 C8         -2.5580    5.8820   -1.0590 c         1 MOL      0.432469
     22 O5         -3.5670    6.6110   -1.1180 o         1 MOL     -0.500371
     23 C9         -0.1180    6.4790   -0.7430 c3        1 MOL     -0.096831
     24 C10         1.0720    6.7500    0.1810 c3        1 MOL      0.183174
     25 C11         2.3130    7.2000   -0.5900 c3        1 MOL     -0.039124
     26 C12         3.1960    8.1740    0.3170 c3        1 MOL     -0.060153
     27 N3          3.5360    7.5580    1.6790 n4        1 MOL     -0.230474
     28 H8         -0.3670    4.4990    0.8890 hn        1 MOL      0.281627
     29 H9         -1.7020    6.9080    0.6460 h1        1 MOL      0.103549
     30 H10        -0.3390    7.4770   -1.1320 hc        1 MOL      0.035117
     31 H11         0.1630    5.8120   -1.5580 hc        1 MOL      0.035117
     32 H12         1.3790    5.8890    0.7800 hc        1 MOL     -0.014977
     33 H13         0.7960    7.5290    0.8920 hc        1 MOL     -0.014977
     34 H14         2.0160    7.7060   -1.5060 hc        1 MOL      0.053506
     35 H15         2.8490    6.3090   -0.9080 hc        1 MOL      0.053506
     36 H16         2.5880    9.0370    0.5710 hx        1 MOL      0.098557
     37 H17         4.0800    8.4630   -0.2520 hx        1 MOL      0.098557
     38 H18         3.9180    6.6280    1.5920 hn        1 MOL      0.299464
     39 H19         4.2790    8.0380    2.1650 hn        1 MOL      0.299464
     40 H20         2.7630    7.5470    2.3450 hn        1 MOL      0.299464
     41 N4         -2.4450    4.8160   -1.8380 n         1 MOL     -0.294724
     42 C13        -3.3620    4.4490   -2.9250 c3        1 MOL     -0.073107
     43 C14        -4.6650    3.8950   -2.3120 c         1 MOL      0.416075
     44 O6         -5.7460    3.8590   -2.9820 o         1 MOL     -0.558610
     45 C15        -2.7460    3.3210   -3.8170 c3        1 MOL     -0.132322
     46 C16        -2.2090    2.1260   -3.0710 c         1 MOL      0.601562
     47 O7         -0.9690    1.9040   -2.9920 o         1 MOL     -0.670965
     48 O8         -3.0930    1.3360   -2.5190 o         1 MOL     -0.670965
     49 H21        -1.6620    4.2090   -1.6590 hn        1 MOL      0.309294
     50 H22        -3.5410    5.3310   -3.5310 h1        1 MOL      0.136658
     51 H23        -1.8180    3.7380   -4.2210 hc        1 MOL      0.052487
     52 H24        -3.3700    3.0380   -4.6610 hc        1 MOL      0.052487
     53 N5         -4.6480    3.4620   -1.0430 n         1 MOL      0.082665
     54 C17        -5.7380    3.0200   -0.2250 c3        1 MOL     -0.049811
     55 C18        -6.3880    1.6260   -0.5820 c         1 MOL      0.348778
     56 O9         -7.5120    1.3670   -0.1470 o         1 MOL     -0.540544
     57 H25        -3.7240    3.4250   -0.6300 hn        1 MOL     -0.062667
     58 H26        -6.4390    3.8560   -0.2110 h1        1 MOL      0.066632
     59 H27        -5.4300    2.9310    0.8190 h1        1 MOL      0.066632
     60 N6         -5.6700    0.7930   -1.2960 n         1 MOL     -0.054018
     61 C19        -6.2060   -0.5890   -1.5660 c3        1 MOL     -0.129995
     62 C20        -6.1530   -1.5070   -0.3800 c         1 MOL      0.404080
     63 O10        -6.6440   -2.6520   -0.5210 o         1 MOL     -0.498631
     64 C21        -5.4660   -1.2500   -2.7610 c3        1 MOL     -0.223347
     65 C22        -4.1970   -2.0210   -2.4190 c         1 MOL      0.479885
     66 N7         -4.0340   -3.1750   -3.0700 n         1 MOL     -0.820143
     67 O11        -3.4310   -1.6890   -1.5530 o         1 MOL     -0.514666
     68 H28        -4.9270    1.1550   -1.8700 hn        1 MOL      0.169822
     69 H29        -7.2350   -0.4020   -1.8840 h1        1 MOL      0.142088
     70 H30        -5.3930   -0.4570   -3.5070 hc        1 MOL      0.110139
     71 H31        -6.1120   -2.0680   -3.1050 hc        1 MOL      0.110139
     72 H32        -4.8680   -3.6440   -3.4100 hn        1 MOL      0.408648
     73 H33        -3.2680   -3.7480   -2.7300 hn        1 MOL      0.408648
     74 N8         -5.6480   -1.1060    0.7830 n         1 MOL     -0.194736
     75 C23        -5.5250   -1.8830    1.9900 c3        1 MOL     -0.334109
     76 C24        -4.4220   -2.8980    2.0740 c         1 MOL      0.513909
     77 O12        -4.4440   -3.6450    3.0630 o         1 MOL     -0.564518
     78 H34        -5.0740   -0.2840    0.7520 hn        1 MOL      0.291036
     79 H35        -6.4840   -2.3570    2.1730 h1        1 MOL      0.153367
     80 H36        -5.2730   -1.2230    2.8310 h1        1 MOL      0.153367
     81 N9         -3.4510   -2.8850    1.1330 n         1 MOL     -0.031342
     82 C25        -2.2580   -3.7180    1.2010 c3        1 MOL      0.359990
     83 C26        -1.0070   -2.8450    1.2210 c         1 MOL      0.095957
     84 O13        -1.0860   -1.6750    0.8130 o         1 MOL     -0.516732
     85 C27        -2.1540   -4.7320    0.0880 c3        1 MOL      0.063663
     86 C28        -3.1440   -5.8590    0.3070 ca        1 MOL     -0.134962
     87 C29        -4.4530   -5.8220   -0.1940 ca        1 MOL     -0.038521
     88 C30        -2.7650   -6.9350    1.2020 ca        1 MOL     -0.038521
     89 C31        -5.4430   -6.8300    0.0870 ca        1 MOL     -0.423561
     90 C32        -3.6940   -7.9870    1.4510 ca        1 MOL     -0.423561
     91 C33        -5.0950   -7.8810    0.9590 ca        1 MOL      0.506973
     92 O14        -5.9020   -8.8890    1.2590 oh        1 MOL     -0.483289
     93 H37        -3.3740   -2.1230    0.4760 hn        1 MOL      0.103739
     94 H38        -2.3580   -4.3300    2.0930 h1        1 MOL     -0.041483
     95 H39        -1.1960   -5.2450    0.0520 hc        1 MOL     -0.022330
     96 H40        -2.4110   -4.3030   -0.8770 hc        1 MOL     -0.022330
     97 H41        -4.6990   -5.0090   -0.8730 ha        1 MOL      0.103914
     98 H42        -1.8010   -7.0740    1.6710 ha        1 MOL      0.103914
     99 H43        -6.4390   -6.7000   -0.3030 ha        1 MOL      0.191617
    100 H44        -3.4490   -8.7750    2.1520 ha        1 MOL      0.191617
    101 H45        -5.4180   -9.5620    1.7390 ho        1 MOL      0.345728
    102 N10         0.1460   -3.3300    1.7670 n         1 MOL     -0.305566
    103 C34         1.3900   -2.6060    1.6340 c3        1 MOL     -0.249585
    104 C35         2.5130   -3.5020    1.2390 c         1 MOL      0.581423
    105 O15         2.9250   -4.4800    1.8960 o         1 MOL     -0.553770
    106 C36         1.7630   -1.7920    2.9220 c3        1 MOL      0.003931
    107 C37         0.7030   -0.7660    3.2180 c3        1 MOL      0.284562
    108 C38         3.1290   -0.9850    2.9130 c3        1 MOL     -0.253646
    109 C39         0.8610   -0.0080    4.5450 c3        1 MOL     -0.262093
    110 H46         0.1880   -4.2080    2.2570 hn        1 MOL      0.319274
    111 H47         1.3340   -1.7590    0.9630 h1        1 MOL      0.140456
    112 H48         1.7710   -2.4390    3.7900 hc        1 MOL      0.036553
    113 H49        -0.2850   -1.2230    3.3050 hc        1 MOL     -0.003392
    114 H50         0.6690    0.0370    2.4730 hc        1 MOL     -0.003392
    115 H51         3.3830   -0.4910    3.8570 hc        1 MOL      0.055534
    116 H52         3.9350   -1.5570    2.4490 hc        1 MOL      0.055534
    117 H53         2.9140   -0.0770    2.3440 hc        1 MOL      0.055534
    118 H54        -0.0690    0.3960    4.9410 hc        1 MOL      0.047901
    119 H55         1.2630   -0.7060    5.2680 hc        1 MOL      0.047901
    120 H56         1.5410    0.8470    4.4510 hc        1 MOL      0.047901
    121 N11         2.9980   -3.2390    0.0440 n         1 MOL     -0.374184
    122 C40         4.1460   -3.8740   -0.5280 c3        1 MOL     -0.055795
    123 C41         5.4280   -3.0830   -0.1950 c         1 MOL      0.382210
    124 O16         5.4090   -1.8710    0.0170 o         1 MOL     -0.124849
    125 C42         3.9070   -4.0840   -1.9590 c3        1 MOL      0.182504
    126 O17         3.9970   -2.8270   -2.5940 oh        1 MOL     -0.631386
    127 H57         2.6020   -2.4270   -0.4240 hn        1 MOL      0.303899
    128 H58         4.3750   -4.8570   -0.1230 h1        1 MOL      0.056584
    129 H59         2.8970   -4.4570   -2.1640 h1        1 MOL      0.032305
    130 H60         4.6810   -4.7650   -2.3060 h1        1 MOL      0.032305
    131 H61         3.5740   -2.1300   -2.0910 ho        1 MOL      0.417135
    132 N12         6.6090   -3.7250   -0.3310 n         1 MOL     -0.478798
    133 C43         7.9200   -3.1390    0.0180 c3        1 MOL      0.032624
    134 C44         8.3390   -1.8560   -0.8200 c         1 MOL      0.441922
    135 O18         9.3620   -1.1750   -0.5460 o         1 MOL     -0.517865
    136 C45         9.0040   -4.2660   -0.0300 c3        1 MOL     -0.390901
    137 H62         6.5530   -4.6710   -0.6770 hn        1 MOL      0.338955
    138 H63         7.9040   -2.7210    1.0270 h1        1 MOL      0.141554
    139 H64         9.9300   -3.7040    0.0810 hc        1 MOL      0.128314
    140 H65         9.0320   -4.9020    0.8580 hc        1 MOL      0.128314
    141 H66         8.9720   -4.8750   -0.9260 hc        1 MOL      0.128314
    142 N13         7.6200   -1.6370   -1.8740 n         1 MOL     -0.285353
    143 C46         7.7860   -0.4690   -2.7300 c3        1 MOL      0.097088
    144 C47         7.3580    0.7570   -1.9180 c         1 MOL      0.324619
    145 O19         7.8770    1.8780   -2.0650 o         1 MOL     -0.515686
    146 C48         6.9640   -0.6390   -4.0020 c3        1 MOL     -0.276344
    147 H67         6.7620   -2.1590   -1.9840 hn        1 MOL      0.203412
    148 H68         8.7980   -0.2660   -3.0620 h1        1 MOL      0.103461
    149 H69         7.4750   -1.4280   -4.5680 hc        1 MOL      0.084696
    150 H70         5.9110   -0.8500   -3.8420 hc        1 MOL      0.084696
    151 H71         6.9050    0.2360   -4.6590 hc        1 MOL      0.084696
    152 N14         6.3670    0.4900   -1.0420 n         1 MOL     -0.000298
    153 C49         5.6370    1.4680   -0.1440 c3        1 MOL     -0.087230
    154 C50         6.1870    1.4250    1.3090 c         1 MOL      0.385787
    155 O20         6.2300    2.4360    2.0020 o         1 MOL     -0.564513
    156 C51         4.1780    1.0330   -0.0670 c3        1 MOL      0.179017
    157 C52         3.5370    1.0180   -1.3930 c3        1 MOL     -0.401930
    158 C53         2.3000    0.1220   -1.3240 c         1 MOL      0.897837
    159 O21         1.2100    0.6380   -1.0360 o         1 MOL     -0.786110
    160 O22         2.4090   -1.1000   -1.5300 o         1 MOL     -0.786110
    161 H72         6.0130   -0.4600   -1.0150 hn        1 MOL      0.036914
    162 H73         5.6650    2.5080   -0.4880 h1        1 MOL      0.081173
    163 H74         3.5840    1.7030    0.5510 hc        1 MOL      0.009088
    164 H75         4.1650   -0.0060    0.2360 hc        1 MOL      0.009088
    165 H76         4.1610    0.5700   -2.1720 hc        1 MOL      0.085224
    166 H77         3.3810    2.0700   -1.6350 hc        1 MOL      0.085224
    167 N15         6.6370    0.2950    1.7930 n         1 MOL     -0.025625
    168 C54         6.9410    0.0680    3.1740 c3        1 MOL     -0.159120
    169 H78         6.1230   -0.4820    3.6390 h1        1 MOL      0.079710
    170 H79         7.8600   -0.5130    3.2540 h1        1 MOL      0.079710
    171 H80         7.0690    1.0240    3.6800 h1        1 MOL      0.079710
    172 H81         6.6500   -0.4680    1.1250 hn        1 MOL     -0.051912
    173 Ca1        -1.2820   -0.1730   -1.2950 Ca        1 MOL      1.785926
    174 O23        -1.6190   -0.9420   -4.0390 oh        1 MOL     -0.836020
    175 H82        -1.3130   -1.0350   -4.9440 ho        1 MOL      0.416761
    176 H83        -2.5430   -0.6970   -4.1190 ho        1 MOL      0.416761
    177 O24         0.1720   -2.3740   -1.7190 oh        1 MOL     -0.836020
    178 H84         1.0370   -1.9500   -1.7350 ho        1 MOL      0.416761
    179 H85         0.3660   -3.2840   -1.9430 ho        1 MOL      0.416761
@<TRIPOS>BOND
     1    1    2 1   
     2    1    4 1   
     3    1    5 1   
     4    1    6 1   
     5    2    3 2   
     6    2    7 1   
     7    7    8 1   
     8    7   15 1   
     9    8    9 1   
    10    8   11 1   
    11    8   16 1   
    12    9   10 2   
    13    9   19 1   
    14   11   12 1   
    15   11   17 1   
    16   11   18 1   
    17   12   13 1   
    18   12   14 1   
    19   19   20 1   
    20   19   28 1   
    21   20   21 1   
    22   20   23 1   
    23   20   29 1   
    24   21   22 2   
    25   21   41 1   
    26   23   24 1   
    27   23   30 1   
    28   23   31 1   
    29   24   25 1   
    30   24   32 1   
    31   24   33 1   
    32   25   26 1   
    33   25   34 1   
    34   25   35 1   
    35   26   27 1   
    36   26   36 1   
    37   26   37 1   
    38   27   38 1   
    39   27   39 1   
    40   27   40 1   
    41   41   42 1   
    42   41   49 1   
    43   42   43 1   
    44   42   45 1   
    45   42   50 1   
    46   43   44 2   
    47   43   53 1   
    48   45   46 1   
    49   45   51 1   
    50   45   52 1   
    51   46   47 1   
    52   46   48 1   
    53   53   54 1   
    54   53   57 1   
    55   54   55 1   
    56   54   58 1   
    57   54   59 1   
    58   55   56 2   
    59   55   60 1   
    60   60   61 1   
    61   60   68 1   
    62   61   62 1   
    63   61   64 1   
    64   61   69 1   
    65   62   63 2   
    66   62   74 1   
    67   64   65 1   
    68   64   70 1   
    69   64   71 1   
    70   65   66 1   
    71   65   67 2   
    72   66   72 1   
    73   66   73 1   
    74   74   75 1   
    75   74   78 1   
    76   75   76 1   
    77   75   79 1   
    78   75   80 1   
    79   76   77 2   
    80   76   81 1   
    81   81   82 1   
    82   81   93 1   
    83   82   83 1   
    84   82   85 1   
    85   82   94 1   
    86   83   84 2   
    87   83  102 1   
    88   85   86 1   
    89   85   95 1   
    90   85   96 1   
    91   86   87 ar  
    92   86   88 ar  
    93   87   89 ar  
    94   87   97 1   
    95   88   90 ar  
    96   88   98 1   
    97   89   91 ar  
    98   89   99 1   
    99   90   91 ar  
   100   90  100 1   
   101   91   92 1   
   102   92  101 1   
   103  102  103 1   
   104  102  110 1   
   105  103  104 1   
   106  103  106 1   
   107  103  111 1   
   108  104  105 2   
   109  104  121 1   
   110  106  107 1   
   111  106  108 1   
   112  106  112 1   
   113  107  109 1   
   114  107  113 1   
   115  107  114 1   
   116  108  115 1   
   117  108  116 1   
   118  108  117 1   
   119  109  118 1   
   120  109  119 1   
   121  109  120 1   
   122  121  122 1   
   123  121  127 1   
   124  122  123 1   
   125  122  125 1   
   126  122  128 1   
   127  123  124 2   
   128  123  132 1   
   129  125  126 1   
   130  125  129 1   
   131  125  130 1   
   132  126  131 1   
   133  132  133 1   
   134  132  137 1   
   135  133  134 1   
   136  133  136 1   
   137  133  138 1   
   138  134  135 2   
   139  134  142 1   
   140  136  139 1   
   141  136  140 1   
   142  136  141 1   
   143  142  143 1   
   144  142  147 1   
   145  143  144 1   
   146  143  146 1   
   147  143  148 1   
   148  144  145 2   
   149  144  152 1   
   150  146  149 1   
   151  146  150 1   
   152  146  151 1   
   153  152  153 1   
   154  152  161 1   
   155  153  154 1   
   156  153  156 1   
   157  153  162 1   
   158  154  155 2   
   159  154  167 1   
   160  156  157 1   
   161  156  163 1   
   162  156  164 1   
   163  157  158 1   
   164  157  165 1   
   165  157  166 1   
   166  158  159 1   
   167  158  160 1   
   168  167  168 1   
   169  167  172 1   
   170  168  169 1   
   171  168  170 1   
   172  168  171 1   
   173  174  175 1   
   174  174  176 1   
   175  177  178 1   
   176  177  179 1   
@<TRIPOS>SUBSTRUCTURE
     1 MOL         1 TEMP              0 ****  ****    0 ROOT
