@<TRIPOS>MOLECULE
MOL
  175   173     1     0     0
SMALL
resp


@<TRIPOS>ATOM
      1 C1          0.4610    4.5420    5.0360 c3        1 MOL     -0.450670
      2 C2         -0.0070    4.3630    3.5750 c         1 MOL      0.696037
      3 O1          0.7040    4.2970    2.5840 o         1 MOL     -0.536224
      4 H1         -0.4070    4.5800    5.6930 hc        1 MOL      0.111420
      5 H2          1.0960    3.7020    5.3210 hc        1 MOL      0.111420
      6 H3          1.0250    5.4710    5.1260 hc        1 MOL      0.111420
      7 N1         -1.3330    4.3020    3.4730 n         1 MOL     -0.580849
      8 C3         -2.1230    3.8180    2.4070 c3        1 MOL      0.192486
      9 C4         -2.5450    4.8880    1.4060 c         1 MOL      0.512761
     10 O2         -2.9720    5.9540    1.8100 o         1 MOL     -0.591973
     11 C5         -3.3220    2.9850    2.9260 c3        1 MOL     -0.278793
     12 C6         -4.1250    2.5470    1.7290 c         1 MOL      0.638390
     13 O3         -5.3140    2.9490    1.6250 o         1 MOL     -0.610587
     14 O4         -3.6420    1.7020    0.9080 o         1 MOL     -0.610587
     15 H4         -1.8370    4.5220    4.3170 hn        1 MOL      0.307359
     16 H5         -1.5140    3.0600    1.9150 h1        1 MOL      0.076169
     17 H6         -3.8470    3.6470    3.6130 hc        1 MOL      0.054435
     18 H7         -2.9000    2.1510    3.4830 hc        1 MOL      0.054435
     19 N2         -2.5080    4.6350    0.1340 n         1 MOL     -0.305235
     20 C7         -2.9500    5.6280   -0.9030 c3        1 MOL      0.282903
     21 C8         -3.8590    5.0030   -1.9300 c         1 MOL      0.308642
     22 O5         -4.1940    5.6790   -2.9350 o         1 MOL     -0.561819
     23 C9         -1.6730    6.2700   -1.5200 c3        1 MOL     -0.242117
     24 H8         -2.0190    3.7800   -0.1010 hn        1 MOL      0.192490
     25 H9         -3.4630    6.4550   -0.4170 h1        1 MOL      0.036860
     26 H10        -0.9220    6.3850   -0.7450 hc        1 MOL      0.062265
     27 H11        -1.2360    5.7350   -2.3720 hc        1 MOL      0.062265
     28 H12        -1.8660    7.2600   -1.9480 hc        1 MOL      0.062265
     29 N3         -4.2980    3.7560   -1.7740 n         1 MOL     -0.113729
     30 C10        -5.1150    3.0470   -2.7800 c3        1 MOL      0.071544
     31 C11        -6.3980    2.3190   -2.1610 c         1 MOL      0.297373
     32 O6         -7.3450    2.0300   -2.8990 o         1 MOL     -0.548132
     33 C12        -4.2410    2.0750   -3.6540 c3        1 MOL     -0.050619
     34 C13        -3.4380    1.1320   -2.7980 c         1 MOL      0.599269
     35 O7         -2.2150    1.2020   -2.8850 o         1 MOL     -0.649844
     36 O8         -3.9310    0.3640   -1.9200 o         1 MOL     -0.649844
     37 H13        -4.0080    3.3020   -0.9160 hn        1 MOL      0.093902
     38 H14        -5.5720    3.7470   -3.4920 h1        1 MOL      0.066812
     39 H15        -3.5660    2.6510   -4.2810 hc        1 MOL      0.020637
     40 H16        -4.9230    1.5970   -4.3590 hc        1 MOL      0.020637
     41 N4         -6.2920    1.9740   -0.9110 n         1 MOL     -0.011242
     42 C14        -7.1690    1.0400   -0.1700 c3        1 MOL     -0.152008
     43 C15        -7.2430   -0.3980   -0.5880 c         1 MOL      0.555319
     44 O9         -8.1930   -1.0070   -0.1640 o         1 MOL     -0.629290
     45 H17        -5.5170    2.4350   -0.4580 hn        1 MOL      0.014617
     46 H18        -8.1910    1.4180   -0.1150 h1        1 MOL      0.083365
     47 H19        -6.7240    0.9380    0.8270 h1        1 MOL      0.083365
     48 N5         -6.2710   -0.9780   -1.3120 n         1 MOL     -0.272064
     49 C16        -6.2740   -2.4070   -1.7820 c3        1 MOL      0.034278
     50 C17        -6.1480   -3.5550   -0.6860 c         1 MOL      0.393645
     51 O10        -6.1390   -4.7810   -0.9990 o         1 MOL     -0.519058
     52 C18        -5.2210   -2.4690   -2.8680 c3        1 MOL     -0.236365
     53 C19        -3.7800   -2.4950   -2.5310 c         1 MOL      0.598982
     54 N6         -2.8490   -2.5140   -3.5200 n         1 MOL     -0.702554
     55 O11        -3.3610   -2.4190   -1.3990 o         1 MOL     -0.298130
     56 H20        -5.4560   -0.4490   -1.5980 hn        1 MOL      0.177837
     57 H21        -7.2360   -2.4690   -2.2780 h1        1 MOL      0.097031
     58 H22        -5.4110   -1.6970   -3.6130 hc        1 MOL      0.061322
     59 H23        -5.4340   -3.4510   -3.2790 hc        1 MOL      0.061322
     60 H24        -3.1490   -2.4310   -4.4740 hn        1 MOL      0.324292
     61 H25        -1.8460   -2.4730   -3.3920 hn        1 MOL      0.324292
     62 N7         -6.1010   -3.1530    0.5730 n         1 MOL     -0.240046
     63 C20        -6.0940   -4.0780    1.7030 c3        1 MOL     -0.214853
     64 C21        -4.7080   -4.6960    2.0150 c         1 MOL      0.396659
     65 O12        -4.5680   -5.6250    2.8220 o         1 MOL     -0.553708
     66 H26        -6.1290   -2.1760    0.8480 hn        1 MOL      0.284239
     67 H27        -6.7350   -4.9270    1.4440 h1        1 MOL      0.123877
     68 H28        -6.5220   -3.6740    2.6120 h1        1 MOL      0.123877
     69 N8         -3.6840   -4.3320    1.2020 n         1 MOL      0.278097
     70 C22        -2.2730   -4.7780    1.4300 c3        1 MOL     -0.613195
     71 C23        -1.2710   -3.5900    1.6140 c         1 MOL      0.639956
     72 O13        -1.5420   -2.5050    1.0430 o         1 MOL     -0.598811
     73 C24        -1.7470   -5.6890    0.2640 c3        1 MOL      0.645986
     74 C25        -2.5680   -6.9990    0.2330 c3        1 MOL     -0.317721
     75 O14        -1.9040   -4.9780   -0.9090 oh        1 MOL     -0.584662
     76 H29        -3.8150   -3.5400    0.5950 hn        1 MOL     -0.072236
     77 H30        -2.1870   -5.3730    2.3410 h1        1 MOL      0.167398
     78 H31        -0.7100   -6.0100    0.2910 h1        1 MOL     -0.042400
     79 H32        -2.3420   -4.1510   -0.6800 ho        1 MOL      0.235264
     80 H33        -2.0170   -7.7930   -0.2740 hc        1 MOL      0.060359
     81 H34        -2.6010   -7.2940    1.2770 hc        1 MOL      0.060359
     82 H35        -3.5620   -6.8700   -0.2010 hc        1 MOL      0.060359
     83 N9         -0.1320   -3.7480    2.2830 n         1 MOL     -0.464386
     84 C26         0.9910   -2.7720    2.1650 c3        1 MOL      0.027836
     85 C27         1.7310   -2.9910    0.8890 c         1 MOL      0.612619
     86 O15         2.4150   -4.0040    0.7820 o         1 MOL     -0.598593
     87 C28         1.9030   -2.6730    3.4170 c3        1 MOL     -0.036814
     88 C29         1.1700   -1.7500    4.4950 c3        1 MOL      0.026636
     89 C30         3.3610   -2.2080    3.2050 c3        1 MOL     -0.017875
     90 C31         1.7660   -1.6880    5.9120 c3        1 MOL     -0.103779
     91 H36        -0.0000   -4.5880    2.8150 hn        1 MOL      0.276964
     92 H37         0.4930   -1.8240    1.9840 h1        1 MOL      0.121817
     93 H38         2.1030   -3.6900    3.7240 hc        1 MOL      0.034619
     94 H39         0.1200   -2.0510    4.5330 hc        1 MOL     -0.000632
     95 H40         1.1130   -0.7350    4.1080 hc        1 MOL     -0.000632
     96 H41         4.0560   -2.5260    3.9750 hc        1 MOL     -0.008243
     97 H42         3.7330   -2.4240    2.1950 hc        1 MOL     -0.008243
     98 H43         3.4080   -1.1240    3.0690 hc        1 MOL     -0.008243
     99 H44         1.5250   -2.5930    6.4760 hc        1 MOL      0.023180
    100 H45         2.8510   -1.5590    5.8790 hc        1 MOL      0.023180
    101 H46         1.3600   -0.8520    6.4800 hc        1 MOL      0.023180
    102 N10         1.7030   -2.0520   -0.0600 n         1 MOL     -0.303141
    103 C32         2.6610   -1.9840   -1.1520 c3        1 MOL      0.021271
    104 C33         4.0850   -1.4260   -0.7380 c         1 MOL      0.522939
    105 O16         4.2620   -0.8830    0.3110 o         1 MOL     -0.282698
    106 C34         1.9770   -1.2080   -2.3320 c3        1 MOL     -0.390738
    107 C35         0.5560   -1.6310   -2.6720 c         1 MOL      0.766326
    108 O17         0.4080   -2.1980   -3.8060 o         1 MOL     -0.688780
    109 O18        -0.4980   -1.2250   -2.1480 o         1 MOL     -0.688780
    110 H47         1.0160   -1.3160    0.0720 hn        1 MOL      0.102590
    111 H48         2.8180   -3.0250   -1.4470 h1        1 MOL      0.070489
    112 H49         2.6100   -1.1700   -3.2060 hc        1 MOL      0.124971
    113 H50         1.9220   -0.1700   -2.0270 hc        1 MOL      0.124971
    114 N11         5.0990   -1.6670   -1.5180 n         1 MOL     -0.634752
    115 C36         6.5110   -1.3100   -1.1250 c3        1 MOL      0.360694
    116 C37         6.6910    0.2590   -1.0750 c         1 MOL      0.273062
    117 O19         7.3080    0.6690   -0.1470 o         1 MOL     -0.469504
    118 C38         7.4900   -1.9730   -2.1670 c3        1 MOL     -0.284688
    119 C39         9.0050   -1.8740   -1.9890 ca        1 MOL      0.107224
    120 C40         9.8720   -1.0870   -2.8000 ca        1 MOL     -0.126742
    121 C41         9.5670   -2.6000   -0.9650 ca        1 MOL     -0.126742
    122 C42        11.2200   -1.0030   -2.4830 ca        1 MOL     -0.124303
    123 C43        10.9120   -2.5580   -0.6160 ca        1 MOL     -0.124303
    124 C44        11.7380   -1.7230   -1.3380 ca        1 MOL     -0.143602
    125 H51         5.0240   -2.0390   -2.4560 hn        1 MOL      0.307420
    126 H52         6.8170   -1.7810   -0.1880 h1        1 MOL      0.050774
    127 H53         7.3300   -1.4600   -3.1180 hc        1 MOL      0.085399
    128 H54         7.2040   -3.0110   -2.3160 hc        1 MOL      0.085399
    129 H55         9.5560   -0.5960   -3.7030 ha        1 MOL      0.106907
    130 H56         8.8870   -3.2370   -0.4100 ha        1 MOL      0.106907
    131 H57        11.8410   -0.2780   -2.9910 ha        1 MOL      0.115993
    132 H58        11.2760   -3.0070    0.2930 ha        1 MOL      0.115993
    133 H59        12.6850   -1.4680   -0.8960 ha        1 MOL      0.118048
    134 N12         6.0230    1.1380   -1.8960 n         1 MOL      0.053800
    135 C45         6.0470    2.5740   -1.7060 c3        1 MOL     -0.159008
    136 C46         5.4750    3.0790   -0.3390 c         1 MOL      0.396621
    137 O20         5.4850    4.2070    0.0210 o         1 MOL     -0.517591
    138 C47         5.2620    3.1780   -2.9600 c3        1 MOL      0.009553
    139 C48         5.4640    2.0870   -4.0080 c3        1 MOL     -0.017938
    140 C49         5.4870    0.7330   -3.2450 c3        1 MOL     -0.031651
    141 H60         7.0670    2.9400   -1.7810 h1        1 MOL      0.079450
    142 H61         4.2220    3.3650   -2.6830 hc        1 MOL      0.046128
    143 H62         5.5540    4.1750   -3.2900 hc        1 MOL      0.046128
    144 H63         4.6910    2.1800   -4.7750 hc        1 MOL      0.015397
    145 H64         6.4670    2.1980   -4.4310 hc        1 MOL      0.015397
    146 H65         4.4710    0.3900   -3.0420 h1        1 MOL      0.030159
    147 H66         6.0780    0.0500   -3.8590 h1        1 MOL      0.030159
    148 N13         4.6690    2.2280    0.3130 n         1 MOL     -0.054201
    149 C50         4.0240    2.5160    1.6200 c3        1 MOL     -0.079624
    150 C51         4.9800    1.9360    2.7090 c         1 MOL      0.454774
    151 O21         5.1330    2.5980    3.7610 o         1 MOL     -0.569850
    152 C52         2.6250    1.8580    1.5850 c3        1 MOL     -0.056899
    153 C53         1.6650    2.3540    0.3860 c3        1 MOL      0.032974
    154 C54         0.3500    1.5730    0.4480 c         1 MOL      0.686965
    155 O22        -0.6400    2.0910   -0.1390 o         1 MOL     -0.744840
    156 O23         0.3040    0.3850    0.8000 o         1 MOL     -0.744840
    157 H67         4.7520    1.2810   -0.0340 hn        1 MOL     -0.016014
    158 H68         3.9290    3.5880    1.7860 h1        1 MOL      0.114730
    159 H69         2.1510    2.1150    2.5300 hc        1 MOL      0.032428
    160 H70         2.7420    0.7730    1.5780 hc        1 MOL      0.032428
    161 H71         2.1100    2.0560   -0.5540 hc        1 MOL      0.006611
    162 H72         1.3270    3.3910    0.4290 hc        1 MOL      0.006611
    163 N14         5.6570    0.8180    2.4610 n         1 MOL     -0.029847
    164 C55         6.6670    0.2600    3.3940 c3        1 MOL     -0.260013
    165 H73         6.4800    0.6380    4.3990 h1        1 MOL      0.095288
    166 H74         6.5990   -0.8280    3.3960 h1        1 MOL      0.095288
    167 H75         7.6640    0.5620    3.0730 h1        1 MOL      0.095288
    168 H76         5.6930    0.3490    1.5730 hn        1 MOL      0.066259
    169 Ca1        -2.0560   -0.0940   -0.2430 Ca        1 MOL      1.731884
    170 O24        -1.2330   -0.0260    2.7070 oh        1 MOL     -0.789682
    171 H77        -1.4510    0.4050    3.5350 ho        1 MOL      0.373809
    172 H78        -0.2860   -0.1810    2.7620 ho        1 MOL      0.373809
    173 O25        -4.5670   -0.7330    1.4610 oh        1 MOL     -0.789682
    174 H79        -5.2410   -0.8070    2.1280 ho        1 MOL      0.373809
    175 H80        -4.5080    0.1960    1.2700 ho        1 MOL      0.373809
@<TRIPOS>BOND
     1    1    2 1   
     2    1    4 1   
     3    1    5 1   
     4    1    6 1   
     5    2    3 2   
     6    2    7 1   
     7    7    8 1   
     8    7   15 1   
     9    8    9 1   
    10    8   11 1   
    11    8   16 1   
    12    9   10 2   
    13    9   19 1   
    14   11   12 1   
    15   11   17 1   
    16   11   18 1   
    17   12   13 1   
    18   12   14 1   
    19   19   20 1   
    20   19   24 1   
    21   20   21 1   
    22   20   23 1   
    23   20   25 1   
    24   21   22 2   
    25   21   29 1   
    26   23   26 1   
    27   23   27 1   
    28   23   28 1   
    29   29   30 1   
    30   29   37 1   
    31   30   31 1   
    32   30   33 1   
    33   30   38 1   
    34   31   32 2   
    35   31   41 1   
    36   33   34 1   
    37   33   39 1   
    38   33   40 1   
    39   34   35 1   
    40   34   36 1   
    41   41   42 1   
    42   41   45 1   
    43   42   43 1   
    44   42   46 1   
    45   42   47 1   
    46   43   44 2   
    47   43   48 1   
    48   48   49 1   
    49   48   56 1   
    50   49   50 1   
    51   49   52 1   
    52   49   57 1   
    53   50   51 2   
    54   50   62 1   
    55   52   53 1   
    56   52   58 1   
    57   52   59 1   
    58   53   54 1   
    59   53   55 2   
    60   54   60 1   
    61   54   61 1   
    62   62   63 1   
    63   62   66 1   
    64   63   64 1   
    65   63   67 1   
    66   63   68 1   
    67   64   65 2   
    68   64   69 1   
    69   69   70 1   
    70   69   76 1   
    71   70   71 1   
    72   70   73 1   
    73   70   77 1   
    74   71   72 2   
    75   71   83 1   
    76   73   74 1   
    77   73   75 1   
    78   73   78 1   
    79   74   80 1   
    80   74   81 1   
    81   74   82 1   
    82   75   79 1   
    83   83   84 1   
    84   83   91 1   
    85   84   85 1   
    86   84   87 1   
    87   84   92 1   
    88   85   86 2   
    89   85  102 1   
    90   87   88 1   
    91   87   89 1   
    92   87   93 1   
    93   88   90 1   
    94   88   94 1   
    95   88   95 1   
    96   89   96 1   
    97   89   97 1   
    98   89   98 1   
    99   90   99 1   
   100   90  100 1   
   101   90  101 1   
   102  102  103 1   
   103  102  110 1   
   104  103  104 1   
   105  103  106 1   
   106  103  111 1   
   107  104  105 2   
   108  104  114 1   
   109  106  107 1   
   110  106  112 1   
   111  106  113 1   
   112  107  108 1   
   113  107  109 1   
   114  114  115 1   
   115  114  125 1   
   116  115  116 1   
   117  115  118 1   
   118  115  126 1   
   119  116  117 2   
   120  116  134 1   
   121  118  119 1   
   122  118  127 1   
   123  118  128 1   
   124  119  120 ar  
   125  119  121 ar  
   126  120  122 ar  
   127  120  129 1   
   128  121  123 ar  
   129  121  130 1   
   130  122  124 ar  
   131  122  131 1   
   132  123  124 ar  
   133  123  132 1   
   134  124  133 1   
   135  134  135 1   
   136  134  140 1   
   137  135  136 1   
   138  135  138 1   
   139  135  141 1   
   140  136  137 2   
   141  136  148 1   
   142  138  139 1   
   143  138  142 1   
   144  138  143 1   
   145  139  140 1   
   146  139  144 1   
   147  139  145 1   
   148  140  146 1   
   149  140  147 1   
   150  148  149 1   
   151  148  157 1   
   152  149  150 1   
   153  149  152 1   
   154  149  158 1   
   155  150  151 2   
   156  150  163 1   
   157  152  153 1   
   158  152  159 1   
   159  152  160 1   
   160  153  154 1   
   161  153  161 1   
   162  153  162 1   
   163  154  155 1   
   164  154  156 1   
   165  163  164 1   
   166  163  168 1   
   167  164  165 1   
   168  164  166 1   
   169  164  167 1   
   170  170  171 1   
   171  170  172 1   
   172  173  174 1   
   173  173  175 1   
@<TRIPOS>SUBSTRUCTURE
     1 MOL         1 TEMP              0 ****  ****    0 ROOT
