@<TRIPOS>MOLECULE
MOL
  189   185     1     0     0
SMALL
resp


@<TRIPOS>ATOM
      1 C1          2.3550   -4.1220    5.6300 c3        1 MOL     -0.436084
      2 C2          2.4690   -3.5860    4.1840 c         1 MOL      0.723365
      3 O1          1.6360   -2.7910    3.7200 o         1 MOL     -0.607218
      4 H1          1.3070   -4.1400    5.9270 hc        1 MOL      0.111007
      5 H2          2.7640   -5.1320    5.6770 hc        1 MOL      0.111007
      6 H3          2.9120   -3.4710    6.3030 hc        1 MOL      0.111007
      7 N1          3.4290   -4.0920    3.3740 n         1 MOL     -0.609220
      8 C3          3.5000   -3.6810    1.9940 c3        1 MOL      0.225996
      9 C4          3.2360   -4.8100    0.9720 c         1 MOL      0.562173
     10 O2          3.7210   -5.9430    1.1480 o         1 MOL     -0.614152
     11 C5          4.8970   -3.0770    1.8770 c3        1 MOL     -0.226080
     12 C6          5.1430   -2.4960    0.5280 c         1 MOL      0.730932
     13 O3          4.1680   -1.8940   -0.0420 o         1 MOL     -0.652675
     14 O4          6.3160   -2.6520    0.1050 o         1 MOL     -0.652675
     15 H4          3.9560   -4.8800    3.7170 hn        1 MOL      0.311947
     16 H5          2.7790   -2.8870    1.8140 h1        1 MOL     -0.014079
     17 H6          5.6550   -3.8620    1.9840 hc        1 MOL      0.023289
     18 H7          5.0520   -2.3760    2.6910 hc        1 MOL      0.023289
     19 N2          2.5980   -4.4900   -0.0960 n         1 MOL     -0.386042
     20 C7          2.5310   -5.3380   -1.3080 c3        1 MOL     -0.082334
     21 C8          2.7020   -4.5440   -2.6330 c         1 MOL      0.488249
     22 O5          2.2650   -4.9830   -3.7070 o         1 MOL     -0.553362
     23 C9          1.2730   -6.2700   -1.2720 c3        1 MOL      0.291504
     24 C10        -0.0550   -5.4300   -1.3990 c3        1 MOL     -0.066379
     25 C11         1.3900   -7.2700   -0.1400 c3        1 MOL     -0.140435
     26 C12        -1.2890   -6.2220   -1.3660 c3        1 MOL     -0.069350
     27 H8          2.1470   -3.5880   -0.1320 hn        1 MOL      0.306431
     28 H9          3.4370   -5.9490   -1.3240 h1        1 MOL      0.093561
     29 H10         1.4380   -6.8540   -2.1710 hc        1 MOL     -0.070416
     30 H11         0.0260   -4.8140   -2.2950 hc        1 MOL      0.056117
     31 H12        -0.1330   -4.7800   -0.5210 hc        1 MOL      0.056117
     32 H13         2.3780   -7.7290   -0.1660 hc        1 MOL      0.011974
     33 H14         1.2390   -6.8000    0.8320 hc        1 MOL      0.011974
     34 H15         0.6520   -8.0720   -0.1720 hc        1 MOL      0.011974
     35 H16        -1.1880   -7.0260   -2.0930 hc        1 MOL     -0.001914
     36 H17        -1.3930   -6.7350   -0.4100 hc        1 MOL     -0.001914
     37 H18        -2.1850   -5.6110   -1.4770 hc        1 MOL     -0.001914
     38 N3          3.2990   -3.3570   -2.5800 n         1 MOL     -0.378058
     39 C13         3.4590   -2.4750   -3.7940 c3        1 MOL     -0.053421
     40 C14         4.7370   -1.5290   -3.7560 c         1 MOL      0.494939
     41 O6          4.9910   -0.8670   -4.7580 o         1 MOL     -0.558698
     42 C15         2.1680   -1.6660   -4.2320 c3        1 MOL     -0.043610
     43 C16         1.7040   -0.7120   -3.2390 c         1 MOL      0.763540
     44 O7          2.4130   -0.4420   -2.2860 o         1 MOL     -0.720745
     45 O8          0.5380   -0.1980   -3.3940 o         1 MOL     -0.720745
     46 H19         3.4360   -2.9190   -1.6760 hn        1 MOL      0.222337
     47 H20         3.5820   -3.2140   -4.5790 h1        1 MOL      0.095055
     48 H21         1.4410   -2.3660   -4.6280 hc        1 MOL      0.037743
     49 H22         2.3800   -1.0970   -5.1370 hc        1 MOL      0.037743
     50 N4          5.6780   -1.6020   -2.7810 n         1 MOL     -0.329078
     51 C17         6.9370   -0.8560   -2.7640 c3        1 MOL     -0.138787
     52 C18         6.8930    0.6430   -2.5110 c         1 MOL      0.489015
     53 O9          7.8710    1.3050   -2.4020 o         1 MOL     -0.605340
     54 H23         5.5240   -2.1400   -1.9390 hn        1 MOL      0.193887
     55 H24         7.4890   -1.0030   -3.6920 h1        1 MOL      0.102717
     56 H25         7.5750   -1.4030   -2.0660 h1        1 MOL      0.102717
     57 N5          5.7220    1.2780   -2.4740 n         1 MOL     -0.093843
     58 C19         5.5890    2.7270   -2.6840 c3        1 MOL     -0.095676
     59 C20         5.9370    3.6330   -1.4580 c         1 MOL      0.427647
     60 O10         6.3230    4.7990   -1.5810 o         1 MOL     -0.563501
     61 C21         4.1860    3.1540   -3.0210 c3        1 MOL     -0.081488
     62 C22         3.0890    2.7440   -2.1160 c         1 MOL      0.833441
     63 O11         3.2750    2.0980   -1.0980 o         1 MOL     -0.773506
     64 O12         1.9210    3.1470   -2.4140 o         1 MOL     -0.773506
     65 H26         4.8740    0.7360   -2.4970 hn        1 MOL      0.113839
     66 H27         6.2930    3.0140   -3.4700 h1        1 MOL      0.106823
     67 H28         3.9750    2.8990   -4.0510 hc        1 MOL      0.031207
     68 H29         4.1310    4.2180   -3.2220 hc        1 MOL      0.031207
     69 N6          6.0800    3.0860   -0.2610 n         1 MOL     -0.050740
     70 C23         6.5250    3.6750    0.9870 c3        1 MOL     -0.287618
     71 C24         5.3860    4.3080    1.7910 c         1 MOL      0.542347
     72 O13         5.5650    5.1490    2.6940 o         1 MOL     -0.594605
     73 H30         5.7890    2.1320   -0.1350 hn        1 MOL      0.150694
     74 H31         7.2970    4.3890    0.7040 h1        1 MOL      0.118488
     75 H32         7.0090    2.9790    1.6660 h1        1 MOL      0.118488
     76 N7          4.1100    3.9380    1.5430 n         1 MOL     -0.161432
     77 C25         2.8370    4.3810    2.2630 c3        1 MOL     -0.034158
     78 C26         1.6970    3.3530    2.2710 c         1 MOL      0.511781
     79 O14         1.8040    2.4030    1.4440 o         1 MOL     -0.436253
     80 C27         2.3580    5.6830    1.5910 c3        1 MOL     -0.054232
     81 C28         2.0330    5.5250    0.1040 c3        1 MOL     -0.123055
     82 C29         1.3390    6.7690   -0.3610 c         1 MOL      0.617443
     83 N8          0.8950    6.6840   -1.6430 n         1 MOL     -0.816924
     84 O15         0.9850    7.7390    0.3390 o         1 MOL     -0.574783
     85 H33         4.0360    3.1620    0.9120 hn        1 MOL     -0.006104
     86 H34         3.1790    4.7260    3.2420 h1        1 MOL      0.039030
     87 H35         3.0580    6.5130    1.6770 hc        1 MOL      0.045067
     88 H36         1.4880    6.0480    2.1250 hc        1 MOL      0.045067
     89 H37         1.5060    4.6040   -0.1390 hc        1 MOL      0.094939
     90 H38         2.9390    5.5740   -0.4870 hc        1 MOL      0.094939
     91 H39         1.2300    5.9550   -2.2600 hn        1 MOL      0.359198
     92 H40         0.1860    7.2740   -2.0550 hn        1 MOL      0.359198
     93 N9          0.7510    3.4950    3.2390 n         1 MOL     -0.502070
     94 C30        -0.2860    2.4460    3.3650 c3        1 MOL     -0.106376
     95 C31        -1.6540    2.9560    2.9440 c         1 MOL      0.642116
     96 O16        -2.1020    3.9530    3.4420 o         1 MOL     -0.584020
     97 C32        -0.3140    1.8520    4.7470 c3        1 MOL      0.172328
     98 C33        -1.6320    1.0840    5.1840 c3        1 MOL     -0.280919
     99 C34         0.7950    0.7820    4.6920 c3        1 MOL     -0.280919
    100 H41         0.7590    4.1940    3.9650 hn        1 MOL      0.328153
    101 H42        -0.1270    1.6530    2.6320 h1        1 MOL      0.164682
    102 H43        -0.0210    2.4720    5.5940 hc        1 MOL      0.010499
    103 H44        -2.3740    1.8860    5.2230 hc        1 MOL      0.061180
    104 H45        -2.0870    0.3660    4.4980 hc        1 MOL      0.061180
    105 H46        -1.5270    0.4810    6.0810 hc        1 MOL      0.061180
    106 H47         0.5530   -0.1380    4.1470 hc        1 MOL      0.061180
    107 H48         1.7530    1.1180    4.2940 hc        1 MOL      0.061180
    108 H49         0.9720    0.4620    5.7130 hc        1 MOL      0.061180
    109 N10        -2.3400    2.2090    2.0660 n         1 MOL     -0.248636
    110 C35        -3.5310    2.6010    1.3230 c3        1 MOL      0.046394
    111 C36        -4.7390    1.6940    1.4730 c         1 MOL      0.474858
    112 O17        -4.6020    0.6270    2.1120 o         1 MOL     -0.550703
    113 C37        -3.0970    2.7250   -0.1740 c3        1 MOL     -0.197628
    114 C38        -3.1010    1.3860   -0.8650 c         1 MOL      0.619079
    115 N11        -2.2140    0.4770   -0.6220 n         1 MOL     -0.515995
    116 O18        -3.9950    1.2140   -1.6630 o         1 MOL     -0.574097
    117 H50        -1.9370    1.3670    1.7000 hn        1 MOL      0.042317
    118 H51        -3.7930    3.5740    1.7340 h1        1 MOL      0.042240
    119 H52        -2.1120    3.1680   -0.3410 hc        1 MOL      0.082136
    120 H53        -3.8300    3.3860   -0.6480 hc        1 MOL      0.082136
    121 H54        -1.3140    0.7620   -0.2590 hn        1 MOL      0.300712
    122 H55        -2.2640   -0.4220   -1.0720 hn        1 MOL      0.300712
    123 N12        -5.8600    2.0260    0.8500 n         1 MOL     -0.305480
    124 C39        -7.0840    1.2800    1.0210 c3        1 MOL      0.078932
    125 C40        -7.1360   -0.2070    0.6940 c         1 MOL      0.370430
    126 O19        -7.9590   -0.9390    1.2690 o         1 MOL     -0.569037
    127 C41        -8.3080    2.0670    0.5260 c3        1 MOL     -0.245397
    128 C42        -8.1270    2.3250   -0.9500 ca        1 MOL      0.161856
    129 C43        -8.6520    1.3560   -1.8370 ca        1 MOL     -0.272861
    130 C44        -7.5910    3.5550   -1.3800 ca        1 MOL     -0.272861
    131 C45        -8.4630    1.5220   -3.1950 ca        1 MOL     -0.209989
    132 C46        -7.2770    3.6790   -2.7550 ca        1 MOL     -0.209989
    133 C47        -7.7460    2.6520   -3.6460 ca        1 MOL      0.286282
    134 O20        -7.5560    2.7190   -4.9820 oh        1 MOL     -0.482547
    135 H56        -5.9110    2.8400    0.2630 hn        1 MOL      0.209471
    136 H57        -7.2320    1.2200    2.1060 h1        1 MOL      0.066754
    137 H58        -8.2980    2.9870    1.1080 hc        1 MOL      0.072120
    138 H59        -9.1810    1.4320    0.6950 hc        1 MOL      0.072120
    139 H60        -9.0840    0.4370   -1.4620 ha        1 MOL      0.170718
    140 H61        -7.3410    4.3150   -0.6510 ha        1 MOL      0.170718
    141 H62        -8.6910    0.7470   -3.9080 ha        1 MOL      0.152248
    142 H63        -6.7640    4.5750   -3.0650 ha        1 MOL      0.152248
    143 H64        -7.9920    1.9610   -5.3690 ho        1 MOL      0.382542
    144 N13        -6.1880   -0.6050   -0.1530 n         1 MOL      0.117077
    145 C48        -6.0920   -2.0250   -0.6240 c3        1 MOL     -0.335379
    146 C49        -5.2300   -2.9140    0.3160 c         1 MOL      0.583301
    147 O21        -5.0090   -4.1040    0.0370 o         1 MOL     -0.551305
    148 C50        -5.4390   -2.0130   -2.0660 c3        1 MOL      0.053901
    149 C51        -6.1120   -1.1630   -3.2640 c3        1 MOL     -0.392391
    150 C52        -5.7130   -1.4530   -4.7180 c         1 MOL      0.768687
    151 O22        -4.5610   -1.1820   -5.1110 o         1 MOL     -0.747500
    152 O23        -6.5880   -1.9220   -5.5230 o         1 MOL     -0.747500
    153 H65        -5.5780    0.0260   -0.6520 hn        1 MOL      0.127445
    154 H66        -7.0960   -2.4420   -0.7500 h1        1 MOL      0.127310
    155 H67        -5.4670   -3.0480   -2.4070 hc        1 MOL      0.067369
    156 H68        -4.3910   -1.7520   -1.9650 hc        1 MOL      0.067369
    157 H69        -5.9820   -0.0900   -3.1580 hc        1 MOL      0.091765
    158 H70        -7.1950   -1.2900   -3.2110 hc        1 MOL      0.091765
    159 N14        -4.6090   -2.3000    1.3500 n         1 MOL     -0.446918
    160 C53        -3.4580   -2.7400    2.1070 c3        1 MOL     -0.091883
    161 C54        -3.6220   -2.6240    3.6490 c         1 MOL      0.565008
    162 O24        -2.9300   -3.3610    4.3490 o         1 MOL     -0.558750
    163 C55        -2.2520   -1.9280    1.5160 c3        1 MOL      0.299415
    164 C56        -0.8880   -2.5090    1.9400 c3        1 MOL     -0.639814
    165 C57         0.2050   -1.7420    1.2410 c         1 MOL      0.938294
    166 O25         0.4110   -0.5590    1.5040 o         1 MOL     -0.831945
    167 O26         0.8030   -2.2420    0.2400 o         1 MOL     -0.831945
    168 H71        -4.7130   -1.2910    1.4460 hn        1 MOL      0.082647
    169 H72        -3.3090   -3.7920    1.8490 h1        1 MOL      0.129448
    170 H73        -2.4060   -0.8850    1.7720 hc        1 MOL      0.055861
    171 H74        -2.3030   -1.9680    0.4310 hc        1 MOL      0.055861
    172 H75        -0.7370   -3.5400    1.6120 hc        1 MOL      0.173306
    173 H76        -0.7390   -2.4350    3.0160 hc        1 MOL      0.173306
    174 N15        -4.6300   -1.8920    4.1520 n         1 MOL     -0.323310
    175 C58        -4.9250   -2.0150    5.6080 c3        1 MOL     -0.120359
    176 H77        -6.0040   -2.0130    5.7610 h1        1 MOL      0.069313
    177 H78        -4.5060   -2.9470    5.9870 h1        1 MOL      0.069313
    178 H79        -4.4820   -1.1740    6.1410 h1        1 MOL      0.069313
    179 H80        -4.9020   -1.0740    3.6120 hn        1 MOL      0.302349
    180 Ca1         2.4710    0.0180    0.1860 Ca        1 MOL      1.759127
    181 O27         4.8940    0.8620    1.2560 oh        1 MOL     -0.849045
    182 H81         4.6400    1.0600    2.1580 ho        1 MOL      0.421487
    183 H82         5.8420    0.8150    1.2780 ho        1 MOL      0.421487
    184 O28         2.9550   -0.5360    2.7780 oh        1 MOL     -0.849045
    185 H83         2.0950   -0.8550    3.0230 ho        1 MOL      0.421487
    186 H84         3.4820   -0.6300    3.5680 ho        1 MOL      0.421487
    187 O29         0.3910    1.2550   -1.1160 oh        1 MOL     -0.849045
    188 H85         0.6300    2.0780   -1.5470 ho        1 MOL      0.421487
    189 H86         0.3440    0.6140   -1.8210 ho        1 MOL      0.421487
@<TRIPOS>BOND
     1    1    2 1   
     2    1    4 1   
     3    1    5 1   
     4    1    6 1   
     5    2    3 2   
     6    2    7 1   
     7    7    8 1   
     8    7   15 1   
     9    8    9 1   
    10    8   11 1   
    11    8   16 1   
    12    9   10 2   
    13    9   19 1   
    14   11   12 1   
    15   11   17 1   
    16   11   18 1   
    17   12   13 1   
    18   12   14 1   
    19   19   20 1   
    20   19   27 1   
    21   20   21 1   
    22   20   23 1   
    23   20   28 1   
    24   21   22 2   
    25   21   38 1   
    26   23   24 1   
    27   23   25 1   
    28   23   29 1   
    29   24   26 1   
    30   24   30 1   
    31   24   31 1   
    32   25   32 1   
    33   25   33 1   
    34   25   34 1   
    35   26   35 1   
    36   26   36 1   
    37   26   37 1   
    38   38   39 1   
    39   38   46 1   
    40   39   40 1   
    41   39   42 1   
    42   39   47 1   
    43   40   41 2   
    44   40   50 1   
    45   42   43 1   
    46   42   48 1   
    47   42   49 1   
    48   43   44 1   
    49   43   45 1   
    50   50   51 1   
    51   50   54 1   
    52   51   52 1   
    53   51   55 1   
    54   51   56 1   
    55   52   53 2   
    56   52   57 1   
    57   57   58 1   
    58   57   65 1   
    59   58   59 1   
    60   58   61 1   
    61   58   66 1   
    62   59   60 2   
    63   59   69 1   
    64   61   62 1   
    65   61   67 1   
    66   61   68 1   
    67   62   63 1   
    68   62   64 1   
    69   69   70 1   
    70   69   73 1   
    71   70   71 1   
    72   70   74 1   
    73   70   75 1   
    74   71   72 2   
    75   71   76 1   
    76   76   77 1   
    77   76   85 1   
    78   77   78 1   
    79   77   80 1   
    80   77   86 1   
    81   78   79 2   
    82   78   93 1   
    83   80   81 1   
    84   80   87 1   
    85   80   88 1   
    86   81   82 1   
    87   81   89 1   
    88   81   90 1   
    89   82   83 1   
    90   82   84 2   
    91   83   91 1   
    92   83   92 1   
    93   93   94 1   
    94   93  100 1   
    95   94   95 1   
    96   94   97 1   
    97   94  101 1   
    98   95   96 2   
    99   95  109 1   
   100   97   98 1   
   101   97   99 1   
   102   97  102 1   
   103   98  103 1   
   104   98  104 1   
   105   98  105 1   
   106   99  106 1   
   107   99  107 1   
   108   99  108 1   
   109  109  110 1   
   110  109  117 1   
   111  110  111 1   
   112  110  113 1   
   113  110  118 1   
   114  111  112 2   
   115  111  123 1   
   116  113  114 1   
   117  113  119 1   
   118  113  120 1   
   119  114  115 1   
   120  114  116 2   
   121  115  121 1   
   122  115  122 1   
   123  123  124 1   
   124  123  135 1   
   125  124  125 1   
   126  124  127 1   
   127  124  136 1   
   128  125  126 2   
   129  125  144 1   
   130  127  128 1   
   131  127  137 1   
   132  127  138 1   
   133  128  129 ar  
   134  128  130 ar  
   135  129  131 ar  
   136  129  139 1   
   137  130  132 ar  
   138  130  140 1   
   139  131  133 ar  
   140  131  141 1   
   141  132  133 ar  
   142  132  142 1   
   143  133  134 1   
   144  134  143 1   
   145  144  145 1   
   146  144  153 1   
   147  145  146 1   
   148  145  148 1   
   149  145  154 1   
   150  146  147 2   
   151  146  159 1   
   152  148  149 1   
   153  148  155 1   
   154  148  156 1   
   155  149  150 1   
   156  149  157 1   
   157  149  158 1   
   158  150  151 1   
   159  150  152 1   
   160  159  160 1   
   161  159  168 1   
   162  160  161 1   
   163  160  163 1   
   164  160  169 1   
   165  161  162 2   
   166  161  174 1   
   167  163  164 1   
   168  163  170 1   
   169  163  171 1   
   170  164  165 1   
   171  164  172 1   
   172  164  173 1   
   173  165  166 1   
   174  165  167 1   
   175  174  175 1   
   176  174  179 1   
   177  175  176 1   
   178  175  177 1   
   179  175  178 1   
   180  181  182 1   
   181  181  183 1   
   182  184  185 1   
   183  184  186 1   
   184  187  188 1   
   185  187  189 1   
@<TRIPOS>SUBSTRUCTURE
     1 MOL         1 TEMP              0 ****  ****    0 ROOT
