@<TRIPOS>MOLECULE
MOL
  175   173     1     0     0
SMALL
resp


@<TRIPOS>ATOM
      1 C1          1.2170    3.8550    5.5580 c3        1 MOL     -0.315957
      2 C2          0.5330    4.1680    4.1830 c         1 MOL      0.671922
      3 O1          1.2220    4.5260    3.2480 o         1 MOL     -0.531714
      4 H1          2.3000    3.8760    5.4370 hc        1 MOL      0.076705
      5 H2          0.9200    4.6040    6.2920 hc        1 MOL      0.076705
      6 H3          0.9090    2.8670    5.9000 hc        1 MOL      0.076705
      7 N1         -0.7480    3.9240    3.9630 n         1 MOL     -0.627287
      8 C3         -1.5010    3.6120    2.6620 c3        1 MOL      0.113343
      9 C4         -1.5650    4.8060    1.6100 c         1 MOL      0.599930
     10 O2         -1.4260    6.0080    1.9370 o         1 MOL     -0.553674
     11 C5         -2.9580    3.1660    3.0050 c3        1 MOL     -0.469213
     12 C6         -3.8170    2.4070    1.9020 c         1 MOL      0.789568
     13 O3         -4.9850    2.1470    2.2730 o         1 MOL     -0.672184
     14 O4         -3.4440    2.0510    0.7810 o         1 MOL     -0.672184
     15 H4         -1.3300    3.7450    4.7650 hn        1 MOL      0.315117
     16 H5         -1.0180    2.8480    2.0420 h1        1 MOL      0.161042
     17 H6         -3.5040    4.0230    3.3990 hc        1 MOL      0.113644
     18 H7         -2.8430    2.4660    3.8290 hc        1 MOL      0.113644
     19 N2         -1.9190    4.4550    0.3210 n         1 MOL     -0.573458
     20 C7         -2.0980    5.4640   -0.7150 c3        1 MOL      0.267252
     21 C8         -3.2620    5.1600   -1.6320 c         1 MOL      0.480679
     22 O5         -3.4940    5.9060   -2.6020 o         1 MOL     -0.584447
     23 C9         -0.7950    5.6030   -1.6030 c3        1 MOL     -0.295552
     24 H8         -1.8450    3.4770    0.0900 hn        1 MOL      0.398696
     25 H9         -2.4010    6.3940   -0.2340 h1        1 MOL      0.023959
     26 H10        -0.9260    6.3860   -2.3460 hc        1 MOL      0.076684
     27 H11         0.0500    5.9460   -0.9880 hc        1 MOL      0.076684
     28 H12        -0.6020    4.6770   -2.1480 hc        1 MOL      0.076684
     29 N3         -3.9820    4.0290   -1.5160 n         1 MOL     -0.436689
     30 C10        -4.9400    3.5610   -2.5530 c3        1 MOL      0.205453
     31 C11        -6.0510    2.7100   -1.9830 c         1 MOL      0.353019
     32 O6         -7.0910    2.5710   -2.6380 o         1 MOL     -0.563461
     33 C12        -4.1480    2.6820   -3.5500 c3        1 MOL     -0.292402
     34 C13        -3.3240    1.5500   -2.9320 c         1 MOL      0.790736
     35 O7         -2.2000    1.2280   -3.4330 o         1 MOL     -0.719268
     36 O8         -3.8240    0.8100   -2.0750 o         1 MOL     -0.719268
     37 H13        -3.7750    3.4960   -0.6770 hn        1 MOL      0.175593
     38 H14        -5.4240    4.3610   -3.1010 h1        1 MOL      0.076352
     39 H15        -3.4640    3.4000   -4.0120 hc        1 MOL      0.071132
     40 H16        -4.8740    2.3000   -4.2730 hc        1 MOL      0.071132
     41 N4         -6.0220    2.2080   -0.7420 n         1 MOL     -0.201582
     42 C14        -7.1860    1.5300   -0.1510 c3        1 MOL     -0.142705
     43 C15        -7.3540    0.0480   -0.6020 c         1 MOL      0.431188
     44 O9         -8.4200   -0.5540   -0.3880 o         1 MOL     -0.593694
     45 H17        -5.0850    2.2430   -0.3660 hn        1 MOL      0.146116
     46 H18        -8.1440    2.0220   -0.3070 h1        1 MOL      0.103504
     47 H19        -7.0090    1.5140    0.9270 h1        1 MOL      0.103504
     48 N5         -6.3890   -0.5250   -1.3120 n         1 MOL     -0.123127
     49 C16        -6.5340   -1.8260   -2.0190 c3        1 MOL     -0.118990
     50 C17        -6.6930   -3.0320   -1.0060 c         1 MOL      0.601515
     51 O10        -7.2320   -4.0470   -1.3840 o         1 MOL     -0.569176
     52 C18        -5.4310   -2.0190   -3.0600 c3        1 MOL     -0.071088
     53 C19        -4.0200   -2.1840   -2.4910 c         1 MOL      0.614629
     54 N6         -3.0490   -2.4550   -3.3310 n         1 MOL     -0.686234
     55 O11        -3.6990   -1.9900   -1.2980 o         1 MOL     -0.614259
     56 H20        -5.6110    0.0420   -1.6250 hn        1 MOL      0.258790
     57 H21        -7.3920   -1.7350   -2.6880 h1        1 MOL      0.096517
     58 H22        -5.4860   -1.1920   -3.7710 hc        1 MOL      0.043872
     59 H23        -5.6860   -2.9160   -3.6120 hc        1 MOL      0.043872
     60 H24        -3.2040   -2.3990   -4.3270 hn        1 MOL      0.336038
     61 H25        -2.0730   -2.4420   -3.0540 hn        1 MOL      0.336038
     62 N7         -6.2870   -2.8920    0.2820 n         1 MOL     -0.367123
     63 C20        -6.3570   -3.9710    1.3940 c3        1 MOL      0.003849
     64 C21        -5.0500   -4.5010    1.9430 c         1 MOL      0.411495
     65 O12        -4.8800   -5.0320    3.0220 o         1 MOL     -0.571424
     66 H26        -5.6490   -2.1190    0.4200 hn        1 MOL      0.183998
     67 H27        -6.9080   -4.8100    0.9760 h1        1 MOL      0.075316
     68 H28        -7.0310   -3.6730    2.1900 h1        1 MOL      0.075316
     69 N8         -3.9640   -4.1090    1.2670 n         1 MOL     -0.109135
     70 C22        -2.5740   -4.6000    1.4840 c3        1 MOL     -0.063637
     71 C23        -1.5690   -3.4810    1.7380 c         1 MOL      0.646965
     72 O13        -1.9000   -2.3510    1.4140 o         1 MOL     -0.608594
     73 C24        -2.1830   -5.3740    0.2290 c3        1 MOL      0.315813
     74 C25        -2.6230   -6.8550    0.1130 c3        1 MOL     -0.306975
     75 O14        -2.6220   -4.7830   -0.9540 oh        1 MOL     -0.543024
     76 H29        -4.1170   -3.5610    0.4340 hn        1 MOL      0.138766
     77 H30        -2.6150   -5.2810    2.3310 h1        1 MOL      0.074724
     78 H31        -1.0940   -5.4490    0.1620 h1        1 MOL      0.036650
     79 H32        -2.4580   -3.8440   -0.8510 ho        1 MOL      0.296780
     80 H33        -1.8940   -7.5050    0.6000 hc        1 MOL      0.074692
     81 H34        -3.6260   -7.0280    0.4820 hc        1 MOL      0.074692
     82 H35        -2.6810   -7.1860   -0.9240 hc        1 MOL      0.074692
     83 N9         -0.2990   -3.7560    2.2020 n         1 MOL     -0.702974
     84 C26         0.8200   -2.8700    2.0350 c3        1 MOL      0.030534
     85 C27         1.4290   -3.2450    0.7480 c         1 MOL      0.460417
     86 O15         1.8460   -4.3850    0.5330 o         1 MOL     -0.585127
     87 C28         1.8450   -2.9510    3.2080 c3        1 MOL      0.186388
     88 C29         1.0990   -2.4890    4.4820 c3        1 MOL      0.085647
     89 C30         2.9740   -2.0110    3.0340 c3        1 MOL     -0.054183
     90 C31         1.8450   -2.7140    5.7770 c3        1 MOL     -0.216016
     91 H36        -0.1360   -4.6730    2.5900 hn        1 MOL      0.314408
     92 H37         0.3510   -1.8900    1.9970 h1        1 MOL      0.167113
     93 H38         2.2940   -3.9370    3.2690 hc        1 MOL     -0.016205
     94 H39         0.2140   -3.1090    4.6060 hc        1 MOL     -0.014141
     95 H40         0.6730   -1.4980    4.3440 hc        1 MOL     -0.014141
     96 H41         3.5990   -2.3440    2.2040 hc        1 MOL     -0.002347
     97 H42         2.5460   -1.0350    2.8070 hc        1 MOL     -0.002347
     98 H43         3.5800   -2.0000    3.9490 hc        1 MOL     -0.002347
     99 H44         1.2370   -3.0890    6.5970 hc        1 MOL      0.042330
    100 H45         2.5450   -3.5280    5.5490 hc        1 MOL      0.042330
    101 H46         2.4130   -1.8090    6.0100 hc        1 MOL      0.042330
    102 N10         1.6570   -2.1870   -0.0150 n         1 MOL     -0.094256
    103 C32         2.5040   -1.9840   -1.2070 c3        1 MOL     -0.024370
    104 C33         3.9300   -1.4860   -0.8590 c         1 MOL      0.352429
    105 O16         4.0560   -0.6900    0.0450 o         1 MOL     -0.229537
    106 C34         1.7160   -1.1510   -2.2850 c3        1 MOL     -0.183147
    107 C35         0.3580   -1.7050   -2.5880 c         1 MOL      0.630623
    108 O17         0.1610   -2.2340   -3.7040 o         1 MOL     -0.629767
    109 O18        -0.5400   -1.5040   -1.7080 o         1 MOL     -0.629767
    110 H47         1.2250   -1.3280    0.3070 hn        1 MOL      0.045906
    111 H48         2.7120   -2.9260   -1.7160 h1        1 MOL      0.064044
    112 H49         2.3510   -1.1200   -3.1730 hc        1 MOL      0.072467
    113 H50         1.6300   -0.0920   -2.0260 hc        1 MOL      0.072467
    114 N11         4.9040   -2.0520   -1.5150 n         1 MOL     -0.531587
    115 C36         6.3540   -1.6170   -1.2550 c3        1 MOL      0.267456
    116 C37         6.6150   -0.0790   -1.1320 c         1 MOL      0.263470
    117 O19         7.1520    0.3010   -0.1010 o         1 MOL     -0.469767
    118 C38         7.2660   -2.2910   -2.2740 c3        1 MOL     -0.162640
    119 C39         8.7450   -2.0900   -2.0170 ca        1 MOL      0.068796
    120 C40         9.5530   -1.1350   -2.6500 ca        1 MOL     -0.147235
    121 C41         9.3010   -2.8700   -0.9880 ca        1 MOL     -0.147235
    122 C42        10.8710   -0.9160   -2.2420 ca        1 MOL     -0.159659
    123 C43        10.6580   -2.6800   -0.5960 ca        1 MOL     -0.159659
    124 C44        11.4070   -1.7030   -1.1900 ca        1 MOL     -0.034312
    125 H51         4.7970   -2.7780   -2.2100 hn        1 MOL      0.319871
    126 H52         6.6750   -2.0490   -0.3100 h1        1 MOL      0.044420
    127 H53         7.0650   -1.9120   -3.2670 hc        1 MOL      0.052913
    128 H54         7.1230   -3.3770   -2.2770 hc        1 MOL      0.052913
    129 H55         9.1900   -0.5440   -3.4850 ha        1 MOL      0.121163
    130 H56         8.6660   -3.5950   -0.5050 ha        1 MOL      0.121163
    131 H57        11.4650   -0.0920   -2.6010 ha        1 MOL      0.123611
    132 H58        11.0010   -3.3310    0.1930 ha        1 MOL      0.123611
    133 H59        12.4170   -1.5990   -0.8270 ha        1 MOL      0.080024
    134 N12         6.1800    0.7480   -2.0310 n         1 MOL     -0.004535
    135 C45         6.3700    2.1830   -1.8420 c3        1 MOL      0.046543
    136 C46         5.7490    2.7670   -0.5320 c         1 MOL      0.171633
    137 O20         6.1480    3.7960   -0.0390 o         1 MOL     -0.484322
    138 C47         5.5620    2.8460   -2.9910 c3        1 MOL     -0.073567
    139 C48         5.8130    1.8150   -4.0980 c3        1 MOL     -0.003422
    140 C49         5.6480    0.5100   -3.3580 c3        1 MOL     -0.028155
    141 H60         7.4270    2.4220   -1.9550 h1        1 MOL      0.068599
    142 H61         4.5190    2.9030   -2.6820 hc        1 MOL      0.053873
    143 H62         6.0370    3.7980   -3.2260 hc        1 MOL      0.053873
    144 H63         5.0950    2.0180   -4.8850 hc        1 MOL      0.016975
    145 H64         6.8410    1.9010   -4.4450 hc        1 MOL      0.016975
    146 H65         4.6090    0.2000   -3.3340 h1        1 MOL      0.023387
    147 H66         6.1210   -0.2820   -3.9320 h1        1 MOL      0.023387
    148 N13         4.7880    2.0720    0.0710 n         1 MOL      0.197975
    149 C50         4.1250    2.3360    1.3110 c3        1 MOL     -0.084164
    150 C51         4.7940    1.7690    2.5670 c         1 MOL      0.496720
    151 O21         5.1110    2.5340    3.4700 o         1 MOL     -0.541960
    152 C52         2.6690    1.8500    1.3550 c3        1 MOL     -0.136367
    153 C53         1.6830    2.3830    0.3360 c3        1 MOL     -0.073650
    154 C54         0.3330    1.5380    0.2920 c         1 MOL      0.622779
    155 O22        -0.6510    2.0270   -0.2640 o         1 MOL     -0.723443
    156 O23         0.2610    0.4220    0.8400 o         1 MOL     -0.723443
    157 H67         4.2900    1.3960   -0.4860 hn        1 MOL      0.035009
    158 H68         4.1640    3.4070    1.4770 h1        1 MOL      0.081136
    159 H69         2.2060    1.9860    2.3290 hc        1 MOL      0.047419
    160 H70         2.5960    0.7600    1.2530 hc        1 MOL      0.047419
    161 H71         2.0470    2.3680   -0.6890 hc        1 MOL      0.036467
    162 H72         1.4910    3.4260    0.6080 hc        1 MOL      0.036467
    163 N14         5.1510    0.4780    2.5600 n         1 MOL     -0.220073
    164 C55         6.1910   -0.0860    3.4320 c3        1 MOL     -0.029411
    165 H73         7.1660    0.0370    2.9610 h1        1 MOL      0.036699
    166 H74         6.1840    0.4340    4.3900 h1        1 MOL      0.036699
    167 H75         5.9960   -1.1470    3.5920 h1        1 MOL      0.036699
    168 H76         4.9000   -0.1470    1.8050 hn        1 MOL      0.090338
    169 Ca1        -2.0910   -0.0790   -0.3220 Ca        1 MOL      1.686490
    170 O24        -1.8370    0.3220    2.5190 oh        1 MOL     -0.782921
    171 H77        -2.1080    0.2220    3.4270 ho        1 MOL      0.389632
    172 H78        -0.8800    0.2750    2.5360 ho        1 MOL      0.389632
    173 O25        -4.5840   -0.3690    1.0710 oh        1 MOL     -0.782921
    174 H79        -4.4660    0.5770    1.0890 ho        1 MOL      0.389632
    175 H80        -5.3240   -0.5230    1.6640 ho        1 MOL      0.389632
@<TRIPOS>BOND
     1    1    2 1   
     2    1    4 1   
     3    1    5 1   
     4    1    6 1   
     5    2    3 2   
     6    2    7 1   
     7    7    8 1   
     8    7   15 1   
     9    8    9 1   
    10    8   11 1   
    11    8   16 1   
    12    9   10 2   
    13    9   19 1   
    14   11   12 1   
    15   11   17 1   
    16   11   18 1   
    17   12   13 1   
    18   12   14 1   
    19   19   20 1   
    20   19   24 1   
    21   20   21 1   
    22   20   23 1   
    23   20   25 1   
    24   21   22 2   
    25   21   29 1   
    26   23   26 1   
    27   23   27 1   
    28   23   28 1   
    29   29   30 1   
    30   29   37 1   
    31   30   31 1   
    32   30   33 1   
    33   30   38 1   
    34   31   32 2   
    35   31   41 1   
    36   33   34 1   
    37   33   39 1   
    38   33   40 1   
    39   34   35 1   
    40   34   36 1   
    41   41   42 1   
    42   41   45 1   
    43   42   43 1   
    44   42   46 1   
    45   42   47 1   
    46   43   44 2   
    47   43   48 1   
    48   48   49 1   
    49   48   56 1   
    50   49   50 1   
    51   49   52 1   
    52   49   57 1   
    53   50   51 2   
    54   50   62 1   
    55   52   53 1   
    56   52   58 1   
    57   52   59 1   
    58   53   54 1   
    59   53   55 2   
    60   54   60 1   
    61   54   61 1   
    62   62   63 1   
    63   62   66 1   
    64   63   64 1   
    65   63   67 1   
    66   63   68 1   
    67   64   65 2   
    68   64   69 1   
    69   69   70 1   
    70   69   76 1   
    71   70   71 1   
    72   70   73 1   
    73   70   77 1   
    74   71   72 2   
    75   71   83 1   
    76   73   74 1   
    77   73   75 1   
    78   73   78 1   
    79   74   80 1   
    80   74   81 1   
    81   74   82 1   
    82   75   79 1   
    83   83   84 1   
    84   83   91 1   
    85   84   85 1   
    86   84   87 1   
    87   84   92 1   
    88   85   86 2   
    89   85  102 1   
    90   87   88 1   
    91   87   89 1   
    92   87   93 1   
    93   88   90 1   
    94   88   94 1   
    95   88   95 1   
    96   89   96 1   
    97   89   97 1   
    98   89   98 1   
    99   90   99 1   
   100   90  100 1   
   101   90  101 1   
   102  102  103 1   
   103  102  110 1   
   104  103  104 1   
   105  103  106 1   
   106  103  111 1   
   107  104  105 2   
   108  104  114 1   
   109  106  107 1   
   110  106  112 1   
   111  106  113 1   
   112  107  108 1   
   113  107  109 1   
   114  114  115 1   
   115  114  125 1   
   116  115  116 1   
   117  115  118 1   
   118  115  126 1   
   119  116  117 2   
   120  116  134 1   
   121  118  119 1   
   122  118  127 1   
   123  118  128 1   
   124  119  120 ar  
   125  119  121 ar  
   126  120  122 ar  
   127  120  129 1   
   128  121  123 ar  
   129  121  130 1   
   130  122  124 ar  
   131  122  131 1   
   132  123  124 ar  
   133  123  132 1   
   134  124  133 1   
   135  134  135 1   
   136  134  140 1   
   137  135  136 1   
   138  135  138 1   
   139  135  141 1   
   140  136  137 2   
   141  136  148 1   
   142  138  139 1   
   143  138  142 1   
   144  138  143 1   
   145  139  140 1   
   146  139  144 1   
   147  139  145 1   
   148  140  146 1   
   149  140  147 1   
   150  148  149 1   
   151  148  157 1   
   152  149  150 1   
   153  149  152 1   
   154  149  158 1   
   155  150  151 2   
   156  150  163 1   
   157  152  153 1   
   158  152  159 1   
   159  152  160 1   
   160  153  154 1   
   161  153  161 1   
   162  153  162 1   
   163  154  155 1   
   164  154  156 1   
   165  163  164 1   
   166  163  168 1   
   167  164  165 1   
   168  164  166 1   
   169  164  167 1   
   170  170  171 1   
   171  170  172 1   
   172  173  174 1   
   173  173  175 1   
@<TRIPOS>SUBSTRUCTURE
     1 MOL         1 TEMP              0 ****  ****    0 ROOT
