@<TRIPOS>MOLECULE
MOL
  179   176     1     0     0
SMALL
resp


@<TRIPOS>ATOM
      1 C1          0.4010    4.7510    4.8550 c3        1 MOL     -0.198035
      2 C2         -0.1530    4.0360    3.5940 c         1 MOL      0.514914
      3 O1          0.5390    3.9140    2.5700 o         1 MOL     -0.516064
      4 H1          0.9600    4.0380    5.4600 hc        1 MOL      0.055058
      5 H2          1.0610    5.5640    4.5520 hc        1 MOL      0.055058
      6 H3         -0.4270    5.1530    5.4390 hc        1 MOL      0.055058
      7 N1         -1.3840    3.5220    3.6660 n         1 MOL     -0.541406
      8 C3         -1.9570    2.8470    2.5340 c3        1 MOL      0.074739
      9 C4         -2.9460    3.7090    1.8090 c         1 MOL      0.493509
     10 O2         -4.1430    3.5470    2.1450 o         1 MOL     -0.498561
     11 C5         -2.4180    1.4140    2.8520 c3        1 MOL     -0.079917
     12 C6         -3.0350    0.6700    1.6570 c         1 MOL      0.918693
     13 O3         -2.5610    0.8750    0.4870 o         1 MOL     -0.842359
     14 O4         -4.0380   -0.0220    1.8670 o         1 MOL     -0.842359
     15 H4         -1.9260    3.6690    4.5120 hn        1 MOL      0.348316
     16 H5         -1.2060    2.6330    1.7610 h1        1 MOL      0.005217
     17 H6         -3.1950    1.5320    3.6060 hc        1 MOL      0.021836
     18 H7         -1.5960    0.7930    3.1990 hc        1 MOL      0.021836
     19 N2         -2.4110    4.5540    0.9620 n         1 MOL     -0.369472
     20 C7         -2.9830    5.7590    0.3130 c3        1 MOL     -0.052593
     21 C8         -4.0110    5.3880   -0.8440 c         1 MOL      0.359617
     22 O5         -5.0190    6.0420   -1.0600 o         1 MOL     -0.514318
     23 C9         -1.8080    6.5990   -0.2410 c3        1 MOL     -0.087973
     24 C10        -0.8820    7.1130    0.8650 c3        1 MOL      0.259149
     25 C11         0.2490    8.0530    0.2890 c3        1 MOL     -0.359582
     26 C12        -0.2430    9.3780   -0.3560 c3        1 MOL     -0.016308
     27 N3         -0.8910   10.3200    0.6240 n4        1 MOL     -0.250335
     28 H8         -1.4560    4.2950    0.7710 hn        1 MOL      0.353894
     29 H9         -3.4680    6.3860    1.0600 h1        1 MOL      0.117837
     30 H10        -2.1490    7.4600   -0.8060 hc        1 MOL      0.057485
     31 H11        -1.2230    5.9720   -0.9130 hc        1 MOL      0.057485
     32 H12        -0.3950    6.2780    1.3730 hc        1 MOL     -0.070603
     33 H13        -1.5910    7.6100    1.5320 hc        1 MOL     -0.070603
     34 H14         0.7770    7.3960   -0.4080 hc        1 MOL      0.150719
     35 H15         0.9460    8.3550    1.0690 hc        1 MOL      0.150719
     36 H16        -1.0110    9.0850   -1.0700 hx        1 MOL      0.109647
     37 H17         0.5360    9.8820   -0.9310 hx        1 MOL      0.109647
     38 H18        -1.6590   10.8810    0.2830 hn        1 MOL      0.301801
     39 H19        -1.1140    9.7750    1.4500 hn        1 MOL      0.301801
     40 H20        -0.2070   10.9090    1.0620 hn        1 MOL      0.301801
     41 N4         -3.7650    4.3300   -1.6320 n         1 MOL     -0.296828
     42 C13        -4.7650    3.8420   -2.6300 c3        1 MOL      0.026043
     43 C14        -5.7900    2.9800   -1.8400 c         1 MOL      0.495726
     44 O6         -6.8540    2.7040   -2.3460 o         1 MOL     -0.554676
     45 C15        -4.0450    2.8800   -3.6400 c3        1 MOL     -0.320389
     46 C16        -3.0520    1.8750   -2.9410 c         1 MOL      0.761098
     47 O7         -2.0430    2.3060   -2.4140 o         1 MOL     -0.733906
     48 O8         -3.3980    0.6620   -2.9530 o         1 MOL     -0.733906
     49 H21        -2.8760    3.8560   -1.5820 hn        1 MOL      0.253974
     50 H22        -5.3090    4.6010   -3.1920 h1        1 MOL      0.103779
     51 H23        -3.4180    3.4180   -4.3500 hc        1 MOL      0.088100
     52 H24        -4.7860    2.3030   -4.1830 hc        1 MOL      0.088100
     53 N5         -5.4500    2.5510   -0.5860 n         1 MOL     -0.022572
     54 C17        -6.4370    1.9200    0.2500 c3        1 MOL     -0.406037
     55 C18        -6.5790    0.4140    0.0230 c         1 MOL      0.662210
     56 O9         -7.3690   -0.3040    0.6870 o         1 MOL     -0.613335
     57 H25        -4.5340    2.7740   -0.2310 hn        1 MOL      0.098309
     58 H26        -7.4140    2.3620    0.0280 h1        1 MOL      0.164649
     59 H27        -6.2530    2.1800    1.3030 h1        1 MOL      0.164649
     60 N6         -5.9670   -0.2260   -0.9660 n         1 MOL     -0.347319
     61 C19        -6.2100   -1.6430   -1.2650 c3        1 MOL      0.020114
     62 C20        -5.9680   -2.6350   -0.0490 c         1 MOL      0.336339
     63 O10        -6.3670   -3.8100   -0.0960 o         1 MOL     -0.505314
     64 C21        -5.4300   -2.0070   -2.5230 c3        1 MOL     -0.307795
     65 C22        -3.9230   -2.0750   -2.3520 c         1 MOL      0.677260
     66 N7         -3.1540   -2.3940   -3.3410 n         1 MOL     -0.671612
     67 O11        -3.4010   -1.8820   -1.2960 o         1 MOL     -0.545887
     68 H28        -5.3180    0.1790   -1.6220 hn        1 MOL      0.218011
     69 H29        -7.2940   -1.7020   -1.3870 h1        1 MOL      0.112244
     70 H30        -5.6430   -1.2560   -3.2730 hc        1 MOL      0.104494
     71 H31        -5.9010   -2.9460   -2.8300 hc        1 MOL      0.104494
     72 H32        -3.5490   -2.6720   -4.2240 hn        1 MOL      0.309782
     73 H33        -2.2130   -2.6600   -3.1100 hn        1 MOL      0.309782
     74 N8         -5.3570   -2.2970    1.1290 n         1 MOL     -0.065002
     75 C23        -5.0930   -3.1720    2.2940 c3        1 MOL     -0.403054
     76 C24        -3.7060   -3.9120    2.2530 c         1 MOL      0.692385
     77 O12        -3.3680   -4.5430    3.2340 o         1 MOL     -0.628155
     78 H34        -4.9960   -1.3570    1.1590 hn        1 MOL      0.357819
     79 H35        -5.8500   -3.9490    2.2700 h1        1 MOL      0.152359
     80 H36        -5.1300   -2.6870    3.2700 h1        1 MOL      0.152359
     81 N9         -2.8390   -3.6920    1.3020 n         1 MOL     -0.364214
     82 C25        -1.4530   -4.2030    1.2650 c3        1 MOL      0.403311
     83 C26        -0.4590   -3.0690    0.9560 c         1 MOL      0.401967
     84 O13        -0.8390   -2.0430    0.3350 o         1 MOL     -0.688054
     85 C27        -1.3040   -5.2940    0.1880 c3        1 MOL     -0.200427
     86 C28        -2.1780   -6.6060    0.3590 ca        1 MOL      0.109967
     87 C29        -3.5660   -6.6900   -0.0340 ca        1 MOL     -0.241905
     88 C30        -1.5020   -7.7800    0.7650 ca        1 MOL     -0.241905
     89 C31        -4.3100   -7.9010   -0.0030 ca        1 MOL     -0.174450
     90 C32        -2.2290   -9.0070    0.8050 ca        1 MOL     -0.174450
     91 C33        -3.6250   -9.0950    0.4080 ca        1 MOL      0.234887
     92 O14        -4.3160  -10.2340    0.5070 oh        1 MOL     -0.416346
     93 H37        -3.1980   -3.0950    0.5730 hn        1 MOL      0.195753
     94 H38        -1.2650   -4.6250    2.2470 h1        1 MOL     -0.022672
     95 H39        -0.2490   -5.5790    0.1570 hc        1 MOL      0.045326
     96 H40        -1.6420   -4.7960   -0.7170 hc        1 MOL      0.045326
     97 H41        -4.1300   -5.7800   -0.2150 ha        1 MOL      0.142701
     98 H42        -0.4420   -7.7180    0.9640 ha        1 MOL      0.142701
     99 H43        -5.3220   -7.8610   -0.3500 ha        1 MOL      0.133649
    100 H44        -1.6650   -9.8360    1.2150 ha        1 MOL      0.133649
    101 H45        -3.8580  -10.9060    1.0220 ho        1 MOL      0.330843
    102 N10         0.7850   -3.1940    1.4310 n         1 MOL     -0.422302
    103 C34         1.9340   -2.2800    1.1740 c3        1 MOL      0.001900
    104 C35         3.1530   -3.0800    0.6540 c         1 MOL      0.749626
    105 O15         3.4000   -4.1430    1.0730 o         1 MOL     -0.596180
    106 C36         2.1250   -1.4650    2.4480 c3        1 MOL     -0.049575
    107 C37         1.2860   -0.2050    2.5460 c3        1 MOL     -0.026909
    108 C38         3.6060   -1.0590    2.6550 c3        1 MOL     -0.012792
    109 C39         1.4410    0.6530    3.8220 c3        1 MOL      0.065814
    110 H46         0.9090   -3.9810    2.0380 hn        1 MOL      0.273310
    111 H47         1.6530   -1.6180    0.3560 h1        1 MOL      0.108122
    112 H48         1.8550   -2.0760    3.3180 hc        1 MOL      0.045701
    113 H49         0.2370   -0.4710    2.4600 hc        1 MOL      0.040304
    114 H50         1.5840    0.4860    1.7610 hc        1 MOL      0.040304
    115 H51         3.7200   -0.7490    3.6940 hc        1 MOL     -0.013542
    116 H52         4.3540   -1.8440    2.5440 hc        1 MOL     -0.013542
    117 H53         3.8840   -0.2080    2.0250 hc        1 MOL     -0.013542
    118 H54         0.5590    1.2870    3.9200 hc        1 MOL     -0.011764
    119 H55         1.5960    0.0650    4.7240 hc        1 MOL     -0.011764
    120 H56         2.3340    1.2590    3.6620 hc        1 MOL     -0.011764
    121 N11         3.8730   -2.5680   -0.2880 n         1 MOL     -0.701657
    122 C40         5.1620   -3.0940   -0.6930 c3        1 MOL      0.460527
    123 C41         6.3430   -2.4620    0.1090 c         1 MOL      0.312679
    124 O16         6.1560   -1.4440    0.7580 o         1 MOL     -0.300332
    125 C42         5.3200   -2.9230   -2.1800 c3        1 MOL     -0.424813
    126 O17         5.6250   -1.5710   -2.5140 oh        1 MOL     -0.331328
    127 H57         3.6170   -1.6210   -0.5200 hn        1 MOL      0.329283
    128 H58         5.2980   -4.1450   -0.4490 h1        1 MOL      0.005651
    129 H59         4.3740   -3.2440   -2.6250 h1        1 MOL      0.153764
    130 H60         6.0580   -3.6800   -2.4380 h1        1 MOL      0.153764
    131 H61         5.2650   -1.3870   -3.3770 ho        1 MOL      0.385238
    132 N12         7.5740   -2.9320   -0.0680 n         1 MOL     -0.419788
    133 C43         8.8260   -2.2170    0.3660 c3        1 MOL      0.097751
    134 C44         8.9060   -0.7900   -0.2650 c         1 MOL      0.447443
    135 O18         9.5280    0.0530    0.3640 o         1 MOL     -0.511462
    136 C45        10.0110   -3.0950   -0.0100 c3        1 MOL     -0.239517
    137 H62         7.7380   -3.8220   -0.5190 hn        1 MOL      0.283102
    138 H63         8.7390   -2.0610    1.4390 h1        1 MOL      0.097150
    139 H64        11.0020   -2.7290    0.2780 hc        1 MOL      0.076361
    140 H65         9.8610   -4.0750    0.4600 hc        1 MOL      0.076361
    141 H66        10.0230   -3.2440   -1.0890 hc        1 MOL      0.076361
    142 N13         8.3190   -0.6200   -1.4440 n         1 MOL     -0.168733
    143 C46         8.4980    0.6370   -2.0950 c3        1 MOL      0.087988
    144 C47         7.4290    1.7260   -1.6850 c         1 MOL      0.348424
    145 O19         7.6800    2.9620   -1.7860 o         1 MOL     -0.500793
    146 C48         8.4810    0.3080   -3.6300 c3        1 MOL     -0.151377
    147 H67         7.8570   -1.3780   -1.9330 hn        1 MOL      0.169934
    148 H68         9.4680    1.0190   -1.7770 h1        1 MOL      0.075561
    149 H69         7.5110   -0.1170   -3.8680 hc        1 MOL      0.039946
    150 H70         8.6740    1.1950   -4.2220 hc        1 MOL      0.039946
    151 H71         9.2920   -0.4260   -3.7230 hc        1 MOL      0.039946
    152 N14         6.2410    1.2600   -1.3030 n         1 MOL     -0.053150
    153 C49         5.3060    2.1170   -0.4780 c3        1 MOL     -0.265862
    154 C50         5.9510    2.3720    0.8850 c         1 MOL      0.538339
    155 O20         5.8790    3.4770    1.3620 o         1 MOL     -0.541392
    156 C51         3.9920    1.2920   -0.2590 c3        1 MOL      0.067920
    157 C52         3.0840    1.3330   -1.5220 c3        1 MOL     -0.060390
    158 C53         1.7090    0.7370   -1.2480 c         1 MOL      0.607586
    159 O21         1.4560   -0.4550   -1.5480 o         1 MOL     -0.738739
    160 O22         0.6320    1.4290   -1.0000 o         1 MOL     -0.738739
    161 H72         6.1570    0.2590   -1.2550 hn        1 MOL     -0.091186
    162 H73         5.0640    3.0690   -0.9650 h1        1 MOL      0.162742
    163 H74         3.4580    1.6890    0.6000 hc        1 MOL      0.070825
    164 H75         4.3110    0.2610   -0.1230 hc        1 MOL      0.070825
    165 H76         3.5220    0.7600   -2.3370 hc        1 MOL      0.010425
    166 H77         3.0270    2.4030   -1.7460 hc        1 MOL      0.010425
    167 N15         6.7030    1.3810    1.4490 n         1 MOL     -0.026973
    168 C54         7.2700    1.5060    2.7600 c3        1 MOL     -0.376321
    169 H78         7.7830    0.5810    3.0220 h1        1 MOL      0.129271
    170 H79         7.9820    2.3320    2.7710 h1        1 MOL      0.129271
    171 H80         6.4770    1.6990    3.4820 h1        1 MOL      0.129271
    172 H81         6.7810    0.4850    0.9800 hn        1 MOL      0.032571
    173 Ca1        -1.3100   -0.1320   -1.5190 Ca        1 MOL      1.765938
    174 O23        -0.4200   -2.6530   -2.5730 oh        1 MOL     -0.773086
    175 H82         0.3230   -2.3940   -3.1290 ho        1 MOL      0.396358
    176 H83        -0.0970   -3.4020   -2.0730 ho        1 MOL      0.396358
    177 O24        -0.6450    0.1480   -4.1100 oh        1 MOL     -0.773086
    178 H84         0.2520    0.4670   -4.0450 ho        1 MOL      0.396358
    179 H85        -1.0470    0.6890   -4.7840 ho        1 MOL      0.396358
@<TRIPOS>BOND
     1    1    2 1   
     2    1    4 1   
     3    1    5 1   
     4    1    6 1   
     5    2    3 2   
     6    2    7 1   
     7    7    8 1   
     8    7   15 1   
     9    8    9 1   
    10    8   11 1   
    11    8   16 1   
    12    9   10 2   
    13    9   19 1   
    14   11   12 1   
    15   11   17 1   
    16   11   18 1   
    17   12   13 1   
    18   12   14 1   
    19   19   20 1   
    20   19   28 1   
    21   20   21 1   
    22   20   23 1   
    23   20   29 1   
    24   21   22 2   
    25   21   41 1   
    26   23   24 1   
    27   23   30 1   
    28   23   31 1   
    29   24   25 1   
    30   24   32 1   
    31   24   33 1   
    32   25   26 1   
    33   25   34 1   
    34   25   35 1   
    35   26   27 1   
    36   26   36 1   
    37   26   37 1   
    38   27   38 1   
    39   27   39 1   
    40   27   40 1   
    41   41   42 1   
    42   41   49 1   
    43   42   43 1   
    44   42   45 1   
    45   42   50 1   
    46   43   44 2   
    47   43   53 1   
    48   45   46 1   
    49   45   51 1   
    50   45   52 1   
    51   46   47 1   
    52   46   48 1   
    53   53   54 1   
    54   53   57 1   
    55   54   55 1   
    56   54   58 1   
    57   54   59 1   
    58   55   56 2   
    59   55   60 1   
    60   60   61 1   
    61   60   68 1   
    62   61   62 1   
    63   61   64 1   
    64   61   69 1   
    65   62   63 2   
    66   62   74 1   
    67   64   65 1   
    68   64   70 1   
    69   64   71 1   
    70   65   66 1   
    71   65   67 2   
    72   66   72 1   
    73   66   73 1   
    74   74   75 1   
    75   74   78 1   
    76   75   76 1   
    77   75   79 1   
    78   75   80 1   
    79   76   77 2   
    80   76   81 1   
    81   81   82 1   
    82   81   93 1   
    83   82   83 1   
    84   82   85 1   
    85   82   94 1   
    86   83   84 2   
    87   83  102 1   
    88   85   86 1   
    89   85   95 1   
    90   85   96 1   
    91   86   87 ar  
    92   86   88 ar  
    93   87   89 ar  
    94   87   97 1   
    95   88   90 ar  
    96   88   98 1   
    97   89   91 ar  
    98   89   99 1   
    99   90   91 ar  
   100   90  100 1   
   101   91   92 1   
   102   92  101 1   
   103  102  103 1   
   104  102  110 1   
   105  103  104 1   
   106  103  106 1   
   107  103  111 1   
   108  104  105 2   
   109  104  121 1   
   110  106  107 1   
   111  106  108 1   
   112  106  112 1   
   113  107  109 1   
   114  107  113 1   
   115  107  114 1   
   116  108  115 1   
   117  108  116 1   
   118  108  117 1   
   119  109  118 1   
   120  109  119 1   
   121  109  120 1   
   122  121  122 1   
   123  121  127 1   
   124  122  123 1   
   125  122  125 1   
   126  122  128 1   
   127  123  124 2   
   128  123  132 1   
   129  125  126 1   
   130  125  129 1   
   131  125  130 1   
   132  126  131 1   
   133  132  133 1   
   134  132  137 1   
   135  133  134 1   
   136  133  136 1   
   137  133  138 1   
   138  134  135 2   
   139  134  142 1   
   140  136  139 1   
   141  136  140 1   
   142  136  141 1   
   143  142  143 1   
   144  142  147 1   
   145  143  144 1   
   146  143  146 1   
   147  143  148 1   
   148  144  145 2   
   149  144  152 1   
   150  146  149 1   
   151  146  150 1   
   152  146  151 1   
   153  152  153 1   
   154  152  161 1   
   155  153  154 1   
   156  153  156 1   
   157  153  162 1   
   158  154  155 2   
   159  154  167 1   
   160  156  157 1   
   161  156  163 1   
   162  156  164 1   
   163  157  158 1   
   164  157  165 1   
   165  157  166 1   
   166  158  159 1   
   167  158  160 1   
   168  167  168 1   
   169  167  172 1   
   170  168  169 1   
   171  168  170 1   
   172  168  171 1   
   173  174  175 1   
   174  174  176 1   
   175  177  178 1   
   176  177  179 1   
@<TRIPOS>SUBSTRUCTURE
     1 MOL         1 TEMP              0 ****  ****    0 ROOT
