@<TRIPOS>MOLECULE
MOL
  183   181     1     0     0
SMALL
resp


@<TRIPOS>ATOM
      1 C1         -0.3120    1.8330    6.0810 c3        1 MOL     -0.253414
      2 C2         -0.7840    1.6200    4.6140 c         1 MOL      0.795402
      3 O1         -0.0370    1.9690    3.6780 o         1 MOL     -0.614349
      4 H1         -0.6710    1.0110    6.7010 hc        1 MOL      0.052913
      5 H2          0.7770    1.8620    6.1130 hc        1 MOL      0.052913
      6 H3         -0.7120    2.7730    6.4590 hc        1 MOL      0.052913
      7 N1         -2.0010    1.1790    4.3820 n         1 MOL     -0.722085
      8 C3         -2.6760    1.2940    3.0370 c3        1 MOL      0.405124
      9 C4         -3.1050    2.6910    2.5370 c         1 MOL      0.395120
     10 O2         -4.1240    3.1940    3.0280 o         1 MOL     -0.563837
     11 C5         -3.9300    0.3380    3.0510 c3        1 MOL     -0.271491
     12 C6         -4.6650    0.3690    1.6400 c         1 MOL      0.793812
     13 O3         -5.8750   -0.0030    1.5400 o         1 MOL     -0.721062
     14 O4         -4.0800    0.7670    0.5660 o         1 MOL     -0.721062
     15 H4         -2.5240    0.8560    5.1830 hn        1 MOL      0.334769
     16 H5         -1.9950    0.9210    2.2740 h1        1 MOL     -0.015905
     17 H6         -4.5850    0.6870    3.8360 hc        1 MOL      0.038311
     18 H7         -3.6250   -0.7100    3.1790 hc        1 MOL      0.038311
     19 N2         -2.4500    3.3430    1.5680 n         1 MOL     -0.253242
     20 C7         -2.6410    4.7720    1.1130 c3        1 MOL     -0.170685
     21 C8         -3.7240    4.8850    0.0340 c         1 MOL      0.498306
     22 O5         -4.0700    6.0570   -0.2850 o         1 MOL     -0.598181
     23 C9         -1.2010    5.2410    0.5960 c3        1 MOL      0.352800
     24 C10        -0.3400    5.4260    1.9020 c3        1 MOL      0.200610
     25 C11        -1.1670    6.5060   -0.2280 c3        1 MOL     -0.314425
     26 C12         1.1480    5.8810    1.7230 c3        1 MOL     -0.130497
     27 H8         -1.7650    2.8900    0.9680 hn        1 MOL      0.215752
     28 H9         -2.9540    5.3290    1.9980 h1        1 MOL      0.094766
     29 H10        -0.7360    4.4310    0.0280 hc        1 MOL     -0.016960
     30 H11        -0.3740    4.4490    2.3620 hc        1 MOL     -0.076896
     31 H12        -0.8620    6.0900    2.5840 hc        1 MOL     -0.076896
     32 H13        -1.7680    6.5330   -1.1300 hc        1 MOL      0.059784
     33 H14        -1.3880    7.3360    0.4350 hc        1 MOL      0.059784
     34 H15        -0.2150    6.6270   -0.7410 hc        1 MOL      0.059784
     35 H16         1.6440    5.1950    1.0400 hc        1 MOL      0.004741
     36 H17         1.1130    6.8970    1.3480 hc        1 MOL      0.004741
     37 H18         1.5890    5.8440    2.7240 hc        1 MOL      0.004741
     38 N3         -4.1710    3.8150   -0.6040 n         1 MOL     -0.411837
     39 C13        -5.2100    3.8560   -1.6480 c3        1 MOL      0.098026
     40 C14        -6.2510    2.6940   -1.5790 c         1 MOL      0.520986
     41 O6         -6.9530    2.4320   -2.5670 o         1 MOL     -0.552402
     42 C15        -4.4440    3.7220   -2.9570 c3        1 MOL     -0.294239
     43 C16        -3.5560    2.4750   -3.1760 c         1 MOL      0.732905
     44 O7         -3.4840    1.6260   -2.2540 o         1 MOL     -0.697448
     45 O8         -3.0850    2.3180   -4.3670 o         1 MOL     -0.697448
     46 H19        -3.7800    2.8970   -0.4770 hn        1 MOL      0.322481
     47 H20        -5.7920    4.7670   -1.6160 h1        1 MOL      0.065671
     48 H21        -3.7710    4.5690   -2.9460 hc        1 MOL      0.065537
     49 H22        -5.1890    3.8090   -3.7500 hc        1 MOL      0.065537
     50 N4         -6.5690    2.2170   -0.3880 n         1 MOL     -0.348533
     51 C17        -7.8740    1.6720    0.0330 c3        1 MOL     -0.337846
     52 C18        -8.2540    0.2770   -0.5730 c         1 MOL      0.569171
     53 O9         -9.3360   -0.2480   -0.4020 o         1 MOL     -0.613453
     54 H23        -5.9290    2.4310    0.3670 hn        1 MOL      0.273134
     55 H24        -8.6190    2.4480   -0.1690 h1        1 MOL      0.157177
     56 H25        -7.8230    1.3830    1.0830 h1        1 MOL      0.157177
     57 N5         -7.3530   -0.4620   -1.2480 n         1 MOL     -0.322660
     58 C19        -7.4140   -1.9150   -1.6630 c3        1 MOL      0.013382
     59 C20        -7.2810   -2.9320   -0.5040 c         1 MOL      0.498349
     60 O10        -7.4640   -4.1140   -0.7010 o         1 MOL     -0.597686
     61 C21        -6.2460   -2.2140   -2.6290 c3        1 MOL     -0.292342
     62 C22        -4.8850   -1.7100   -2.1820 c         1 MOL      0.690394
     63 O11        -4.0730   -1.1830   -2.9650 o         1 MOL     -0.670288
     64 O12        -4.5670   -1.7760   -0.9480 o         1 MOL     -0.670288
     65 H26        -6.4620   -0.0170   -1.4280 hn        1 MOL      0.301536
     66 H27        -8.4120   -2.1460   -2.0380 h1        1 MOL      0.092206
     67 H28        -6.4750   -1.7280   -3.5810 hc        1 MOL      0.076593
     68 H29        -6.1090   -3.2830   -2.7710 hc        1 MOL      0.076593
     69 N6         -6.9200   -2.5560    0.7390 n         1 MOL     -0.268173
     70 C23        -6.7150   -3.4260    1.8840 c3        1 MOL     -0.085168
     71 C24        -5.2650   -3.9560    2.1000 c         1 MOL      0.531633
     72 O13        -5.0550   -4.7020    3.0580 o         1 MOL     -0.615195
     73 H30        -6.7010   -1.5770    0.7750 hn        1 MOL      0.277981
     74 H31        -7.3600   -4.2940    1.7530 h1        1 MOL      0.066208
     75 H32        -7.1120   -2.9780    2.7950 h1        1 MOL      0.066208
     76 N7         -4.3150   -3.6330    1.2280 n         1 MOL     -0.192074
     77 C25        -2.9630   -4.2100    1.2600 c3        1 MOL      0.009948
     78 C26        -1.8550   -3.1570    1.2450 c         1 MOL      0.677060
     79 O14        -2.0380   -1.9750    1.0970 o         1 MOL     -0.652037
     80 C27        -2.7170   -5.3670    0.2580 c3        1 MOL     -0.097564
     81 C28        -2.9180   -4.8950   -1.2190 c3        1 MOL     -0.197774
     82 C29        -1.7830   -4.0210   -1.6630 c         1 MOL      0.686520
     83 N8         -0.6530   -4.5960   -1.9700 n         1 MOL     -0.804081
     84 O15        -2.0230   -2.7940   -1.7820 o         1 MOL     -0.613094
     85 H33        -4.5870   -2.8730    0.6220 hn        1 MOL      0.174349
     86 H34        -2.7590   -4.6510    2.2390 h1        1 MOL      0.052431
     87 H35        -3.4450   -6.1530    0.4820 hc        1 MOL      0.033484
     88 H36        -1.7750   -5.8930    0.3560 hc        1 MOL      0.033484
     89 H37        -3.8600   -4.3820   -1.3710 hc        1 MOL      0.081343
     90 H38        -2.9720   -5.7320   -1.9220 hc        1 MOL      0.081343
     91 H39        -0.3910   -5.5760   -1.9590 hn        1 MOL      0.362969
     92 H40         0.1570   -4.0280   -2.1920 hn        1 MOL      0.362969
     93 N9         -0.6220   -3.6180    1.5150 n         1 MOL     -0.521728
     94 C30         0.5700   -2.8240    1.7550 c3        1 MOL      0.062901
     95 C31         1.7360   -3.3330    0.9070 c         1 MOL      0.339782
     96 O16         2.3860   -4.3070    1.2030 o         1 MOL     -0.541806
     97 C32         0.9430   -2.7530    3.2220 c3        1 MOL      0.301581
     98 C33         1.8000   -1.5100    3.4350 c3        1 MOL     -0.399359
     99 C34        -0.2670   -2.5590    4.1230 c3        1 MOL     -0.399359
    100 H41        -0.5010   -4.5610    1.8560 hn        1 MOL      0.268841
    101 H42         0.2490   -1.8160    1.4860 h1        1 MOL      0.160867
    102 H43         1.5040   -3.6470    3.4760 hc        1 MOL     -0.034969
    103 H44         1.2330   -0.5810    3.3820 hc        1 MOL      0.081784
    104 H45         2.0910   -1.5910    4.4870 hc        1 MOL      0.081784
    105 H46         2.6530   -1.5500    2.7550 hc        1 MOL      0.081784
    106 H47        -0.0380   -2.3290    5.1600 hc        1 MOL      0.081784
    107 H48        -0.9250   -1.7640    3.7680 hc        1 MOL      0.081784
    108 H49        -0.9550   -3.3990    4.1280 hc        1 MOL      0.081784
    109 N10         2.1300   -2.4820   -0.0110 n         1 MOL     -0.075239
    110 C35         3.2410   -2.7320   -0.8910 c3        1 MOL      0.053788
    111 C36         4.4980   -2.2060   -0.1240 c         1 MOL      0.494408
    112 O17         4.4750   -1.5480    0.9160 o         1 MOL     -0.360932
    113 C37         2.9190   -2.0200   -2.2210 c3        1 MOL     -0.338792
    114 C38         1.8900   -2.7420   -3.0130 c         1 MOL      0.796274
    115 N11         0.8560   -2.0830   -3.3300 n         1 MOL     -0.830979
    116 O18         2.0350   -3.9010   -3.3550 o         1 MOL     -0.637734
    117 H50         1.5750   -1.6500   -0.1340 hn        1 MOL      0.074585
    118 H51         3.5320   -3.7730   -1.0670 h1        1 MOL      0.065455
    119 H52         3.8210   -1.9560   -2.8150 hc        1 MOL      0.053441
    120 H53         2.6070   -0.9880   -2.0670 hc        1 MOL      0.053441
    121 H54         0.8020   -1.1690   -2.8960 hn        1 MOL      0.399591
    122 H55         0.0930   -2.5200   -3.8240 hn        1 MOL      0.399591
    123 N12         5.7260   -2.4050   -0.5940 n         1 MOL     -0.610584
    124 C39         6.9530   -1.8130    0.0030 c3        1 MOL      0.156499
    125 C40         6.9250   -0.2500   -0.0990 c         1 MOL      0.774808
    126 O19         7.1660    0.4820    0.8620 o         1 MOL     -0.547050
    127 C41         8.2140   -2.4780   -0.6050 c3        1 MOL      0.035211
    128 C42         9.5510   -1.9340   -0.2130 ca        1 MOL     -0.065319
    129 C43         9.7460   -1.5720    1.1690 ca        1 MOL     -0.160545
    130 C44        10.4200   -1.5360   -1.1890 ca        1 MOL     -0.160545
    131 C45        10.8240   -0.7500    1.4950 ca        1 MOL     -0.240576
    132 C46        11.5000   -0.7020   -0.8350 ca        1 MOL     -0.240576
    133 C47        11.7170   -0.3250    0.4830 ca        1 MOL      0.332891
    134 O20        12.8220    0.3740    0.8510 oh        1 MOL     -0.457663
    135 H56         5.8040   -2.9220   -1.4620 hn        1 MOL      0.316973
    136 H57         7.0680   -2.0540    1.0620 h1        1 MOL      0.054022
    137 H58         8.1370   -2.4110   -1.6870 hc        1 MOL      0.005279
    138 H59         8.0910   -3.5400   -0.4340 hc        1 MOL      0.005279
    139 H60         9.0680   -1.8720    1.9460 ha        1 MOL      0.135877
    140 H61        10.2840   -1.9550   -2.1830 ha        1 MOL      0.135877
    141 H62        10.9340   -0.4090    2.5110 ha        1 MOL      0.143199
    142 H63        12.1920   -0.4000   -1.6070 ha        1 MOL      0.143199
    143 H64        13.3960    0.4140    0.0820 ho        1 MOL      0.322919
    144 N13         6.5360    0.3480   -1.2420 n         1 MOL     -0.673172
    145 C48         6.3730    1.7740   -1.5300 c3        1 MOL     -0.065712
    146 C49         5.3810    2.4740   -0.6200 c         1 MOL      0.423370
    147 O21         5.4160    3.7030   -0.6370 o         1 MOL     -0.533149
    148 C50         6.0730    1.9310   -3.0490 c3        1 MOL     -0.038401
    149 C51         4.5590    1.8210   -3.4730 c3        1 MOL     -0.176435
    150 C52         4.5150    1.9360   -5.0390 c         1 MOL      0.705418
    151 O22         4.9220    2.9500   -5.5870 o         1 MOL     -0.728827
    152 O23         4.1070    0.9780   -5.7670 o         1 MOL     -0.728827
    153 H65         6.3910   -0.2910   -2.0160 hn        1 MOL      0.329158
    154 H66         7.2490    2.3440   -1.2280 h1        1 MOL      0.099982
    155 H67         6.5730    1.2390   -3.7200 hc        1 MOL      0.045209
    156 H68         6.4240    2.8980   -3.4090 hc        1 MOL      0.045209
    157 H69         3.9380    2.6250   -3.0920 hc        1 MOL      0.031251
    158 H70         4.1480    0.8660   -3.1370 hc        1 MOL      0.031251
    159 N14         4.5870    1.7050    0.0860 n         1 MOL     -0.058754
    160 C53         3.7100    2.1050    1.2080 c3        1 MOL     -0.026909
    161 C54         4.2840    1.9160    2.6070 c         1 MOL      0.348658
    162 O24         4.1780    2.7400    3.5520 o         1 MOL     -0.532886
    163 C55         2.3100    1.4050    1.0070 c3        1 MOL      0.205404
    164 C56         1.6180    1.8350   -0.2930 c3        1 MOL     -0.072600
    165 C57         0.2390    1.1350   -0.4680 c         1 MOL      0.807237
    166 O25        -0.8620    1.7500   -0.3920 o         1 MOL     -0.797045
    167 O26         0.1900   -0.0970   -0.6320 o         1 MOL     -0.797045
    168 H71         4.7260    0.7210   -0.0600 hn        1 MOL      0.229503
    169 H72         3.6240    3.1910    1.1890 h1        1 MOL      0.075269
    170 H73         1.5880    1.6660    1.7670 hc        1 MOL     -0.022005
    171 H74         2.5350    0.3410    0.9530 hc        1 MOL     -0.022005
    172 H75         2.3320    1.5390   -1.0580 hc        1 MOL     -0.012009
    173 H76         1.5750    2.9220   -0.2840 hc        1 MOL     -0.012009
    174 N15         4.9370    0.7700    2.8120 n         1 MOL      0.020986
    175 C58         5.7620    0.4650    3.9500 c3        1 MOL     -0.346741
    176 H77         6.8070    0.6560    3.7040 h1        1 MOL      0.113658
    177 H78         5.4680    1.0920    4.7920 h1        1 MOL      0.113658
    178 H79         5.6390   -0.5850    4.2180 h1        1 MOL      0.113658
    179 H80         5.0260    0.1550    2.0180 hn        1 MOL     -0.030587
    180 Ca1        -2.3530   -0.2660   -1.0670 Ca        1 MOL      1.752630
    181 O27        -0.8340    0.2830   -3.4740 oh        1 MOL     -0.814761
    182 H81         0.0180    0.6320   -3.7480 ho        1 MOL      0.403640
    183 H82        -1.2860    0.0970   -4.2890 ho        1 MOL      0.403640
@<TRIPOS>BOND
     1    1    2 1   
     2    1    4 1   
     3    1    5 1   
     4    1    6 1   
     5    2    3 2   
     6    2    7 1   
     7    7    8 1   
     8    7   15 1   
     9    8    9 1   
    10    8   11 1   
    11    8   16 1   
    12    9   10 2   
    13    9   19 1   
    14   11   12 1   
    15   11   17 1   
    16   11   18 1   
    17   12   13 1   
    18   12   14 1   
    19   19   20 1   
    20   19   27 1   
    21   20   21 1   
    22   20   23 1   
    23   20   28 1   
    24   21   22 2   
    25   21   38 1   
    26   23   24 1   
    27   23   25 1   
    28   23   29 1   
    29   24   26 1   
    30   24   30 1   
    31   24   31 1   
    32   25   32 1   
    33   25   33 1   
    34   25   34 1   
    35   26   35 1   
    36   26   36 1   
    37   26   37 1   
    38   38   39 1   
    39   38   46 1   
    40   39   40 1   
    41   39   42 1   
    42   39   47 1   
    43   40   41 2   
    44   40   50 1   
    45   42   43 1   
    46   42   48 1   
    47   42   49 1   
    48   43   44 1   
    49   43   45 1   
    50   50   51 1   
    51   50   54 1   
    52   51   52 1   
    53   51   55 1   
    54   51   56 1   
    55   52   53 2   
    56   52   57 1   
    57   57   58 1   
    58   57   65 1   
    59   58   59 1   
    60   58   61 1   
    61   58   66 1   
    62   59   60 2   
    63   59   69 1   
    64   61   62 1   
    65   61   67 1   
    66   61   68 1   
    67   62   63 1   
    68   62   64 1   
    69   69   70 1   
    70   69   73 1   
    71   70   71 1   
    72   70   74 1   
    73   70   75 1   
    74   71   72 2   
    75   71   76 1   
    76   76   77 1   
    77   76   85 1   
    78   77   78 1   
    79   77   80 1   
    80   77   86 1   
    81   78   79 2   
    82   78   93 1   
    83   80   81 1   
    84   80   87 1   
    85   80   88 1   
    86   81   82 1   
    87   81   89 1   
    88   81   90 1   
    89   82   83 1   
    90   82   84 2   
    91   83   91 1   
    92   83   92 1   
    93   93   94 1   
    94   93  100 1   
    95   94   95 1   
    96   94   97 1   
    97   94  101 1   
    98   95   96 2   
    99   95  109 1   
   100   97   98 1   
   101   97   99 1   
   102   97  102 1   
   103   98  103 1   
   104   98  104 1   
   105   98  105 1   
   106   99  106 1   
   107   99  107 1   
   108   99  108 1   
   109  109  110 1   
   110  109  117 1   
   111  110  111 1   
   112  110  113 1   
   113  110  118 1   
   114  111  112 2   
   115  111  123 1   
   116  113  114 1   
   117  113  119 1   
   118  113  120 1   
   119  114  115 1   
   120  114  116 2   
   121  115  121 1   
   122  115  122 1   
   123  123  124 1   
   124  123  135 1   
   125  124  125 1   
   126  124  127 1   
   127  124  136 1   
   128  125  126 2   
   129  125  144 1   
   130  127  128 1   
   131  127  137 1   
   132  127  138 1   
   133  128  129 ar  
   134  128  130 ar  
   135  129  131 ar  
   136  129  139 1   
   137  130  132 ar  
   138  130  140 1   
   139  131  133 ar  
   140  131  141 1   
   141  132  133 ar  
   142  132  142 1   
   143  133  134 1   
   144  134  143 1   
   145  144  145 1   
   146  144  153 1   
   147  145  146 1   
   148  145  148 1   
   149  145  154 1   
   150  146  147 2   
   151  146  159 1   
   152  148  149 1   
   153  148  155 1   
   154  148  156 1   
   155  149  150 1   
   156  149  157 1   
   157  149  158 1   
   158  150  151 1   
   159  150  152 1   
   160  159  160 1   
   161  159  168 1   
   162  160  161 1   
   163  160  163 1   
   164  160  169 1   
   165  161  162 2   
   166  161  174 1   
   167  163  164 1   
   168  163  170 1   
   169  163  171 1   
   170  164  165 1   
   171  164  172 1   
   172  164  173 1   
   173  165  166 1   
   174  165  167 1   
   175  174  175 1   
   176  174  179 1   
   177  175  176 1   
   178  175  177 1   
   179  175  178 1   
   180  181  182 1   
   181  181  183 1   
@<TRIPOS>SUBSTRUCTURE
     1 MOL         1 TEMP              0 ****  ****    0 ROOT
