@<TRIPOS>MOLECULE
MOL
  189   185     1     0     0
SMALL
resp


@<TRIPOS>ATOM
      1 C1          0.3750    2.8620    4.9120 c3        1 MOL     -0.173322
      2 C2         -0.3650    2.6480    3.5610 c         1 MOL      0.553382
      3 O1          0.1840    3.0100    2.5230 o         1 MOL     -0.563395
      4 H1          0.5060    1.9020    5.4110 hc        1 MOL      0.046608
      5 H2          1.3510    3.3090    4.7250 hc        1 MOL      0.046608
      6 H3         -0.2120    3.5240    5.5490 hc        1 MOL      0.046608
      7 N1         -1.5710    1.9870    3.5120 n         1 MOL     -0.345934
      8 C3         -2.2980    1.6700    2.3460 c3        1 MOL      0.141938
      9 C4         -3.0940    2.9120    1.8450 c         1 MOL      0.162841
     10 O2         -4.2700    3.0450    2.2570 o         1 MOL     -0.493533
     11 C5         -3.2160    0.5260    2.6040 c3        1 MOL      0.057239
     12 C6         -3.9450   -0.0110    1.3840 c         1 MOL      0.580005
     13 O3         -4.9590   -0.6780    1.5500 o         1 MOL     -0.667689
     14 O4         -3.4480    0.1620    0.2490 o         1 MOL     -0.667689
     15 H4         -1.9590    1.7790    4.4240 hn        1 MOL      0.231948
     16 H5         -1.5670    1.4330    1.5650 h1        1 MOL      0.009397
     17 H6         -3.9060    0.7350    3.4170 hc        1 MOL     -0.005646
     18 H7         -2.5630   -0.2510    3.0020 hc        1 MOL     -0.005646
     19 N2         -2.5160    3.7590    1.0560 n         1 MOL     -0.075352
     20 C7         -3.2070    4.9820    0.5000 c3        1 MOL      0.121864
     21 C8         -3.9640    4.6280   -0.7660 c         1 MOL      0.351000
     22 O5         -5.0060    5.3340   -0.9840 o         1 MOL     -0.581072
     23 C9         -2.2260    6.1250    0.2460 c3        1 MOL     -0.069744
     24 C10        -1.2260    6.4300    1.3600 c3        1 MOL      0.049403
     25 C11        -1.9190    6.6870    2.6800 c3        1 MOL      0.110560
     26 C12        -1.0720    7.5610    3.5810 c3        1 MOL     -0.099563
     27 N3         -1.1800    9.0460    3.3040 n4        1 MOL     -0.284943
     28 H8         -1.5540    3.5530    0.8090 hn        1 MOL      0.247564
     29 H9         -3.9150    5.3020    1.2660 h1        1 MOL      0.040894
     30 H10        -2.7260    7.0430   -0.0690 hc        1 MOL      0.010988
     31 H11        -1.6820    5.7670   -0.6310 hc        1 MOL      0.010988
     32 H12        -0.6080    7.2700    1.0550 hc        1 MOL     -0.011868
     33 H13        -0.5700    5.5870    1.5680 hc        1 MOL     -0.011868
     34 H14        -2.1090    5.7110    3.1270 hc        1 MOL      0.001668
     35 H15        -2.8850    7.1050    2.4280 hc        1 MOL      0.001668
     36 H16        -0.0380    7.2770    3.3830 hx        1 MOL      0.107121
     37 H17        -1.4060    7.3040    4.5840 hx        1 MOL      0.107121
     38 H18        -1.9880    9.4420    3.7530 hn        1 MOL      0.309749
     39 H19        -0.4100    9.5140    3.7630 hn        1 MOL      0.309749
     40 H20        -1.3600    9.3960    2.3790 hn        1 MOL      0.309749
     41 N4         -3.7310    3.5700   -1.5610 n         1 MOL     -0.190149
     42 C13        -4.6070    3.2840   -2.6790 c3        1 MOL      0.100962
     43 C14        -5.6180    2.2040   -2.2500 c         1 MOL      0.379311
     44 O6         -6.2900    1.7130   -3.1550 o         1 MOL     -0.523840
     45 C15        -3.6830    2.9140   -3.8670 c3        1 MOL     -0.423813
     46 C16        -2.6350    1.8470   -3.5800 c         1 MOL      0.887915
     47 O7         -1.6790    1.7710   -4.3210 o         1 MOL     -0.736775
     48 O8         -2.7100    1.1360   -2.5670 o         1 MOL     -0.736775
     49 H21        -2.9110    3.0020   -1.4100 hn        1 MOL      0.174683
     50 H22        -5.2560    4.0940   -3.0060 h1        1 MOL      0.102007
     51 H23        -3.1610    3.8180   -4.1580 hc        1 MOL      0.098296
     52 H24        -4.2600    2.4460   -4.6640 hc        1 MOL      0.098296
     53 N5         -5.7540    1.8710   -0.9810 n         1 MOL     -0.196436
     54 C17        -6.8650    1.1140   -0.3740 c3        1 MOL     -0.051683
     55 C18        -7.2830   -0.1760   -1.0930 c         1 MOL      0.426309
     56 O9         -8.4640   -0.5160   -0.9940 o         1 MOL     -0.576023
     57 H25        -5.2100    2.3790   -0.3050 hn        1 MOL      0.203588
     58 H26        -7.7540    1.7410   -0.2340 h1        1 MOL      0.081776
     59 H27        -6.5670    0.8690    0.6440 h1        1 MOL      0.081776
     60 N6         -6.3150   -0.9920   -1.5140 n         1 MOL     -0.109443
     61 C19        -6.4710   -2.2600   -2.1520 c3        1 MOL     -0.022766
     62 C20        -6.3940   -3.4270   -1.0410 c         1 MOL      0.358015
     63 O10        -6.6360   -4.6020   -1.3530 o         1 MOL     -0.539558
     64 C21        -5.3280   -2.4180   -3.1670 c3        1 MOL     -0.174267
     65 C22        -3.8730   -2.3130   -2.7050 c         1 MOL      0.790324
     66 O11        -2.9760   -1.7840   -3.3990 o         1 MOL     -0.761261
     67 O12        -3.6400   -2.8450   -1.5850 o         1 MOL     -0.761261
     68 H28        -5.4140   -0.5420   -1.4240 hn        1 MOL      0.111767
     69 H29        -7.4380   -2.2820   -2.6460 h1        1 MOL      0.110911
     70 H30        -5.5580   -1.6920   -3.9600 hc        1 MOL      0.049848
     71 H31        -5.4980   -3.3920   -3.6400 hc        1 MOL      0.049848
     72 N7         -6.1730   -3.0260    0.1840 n         1 MOL     -0.084731
     73 C23        -6.1160   -3.7940    1.4110 c3        1 MOL     -0.355269
     74 C24        -4.8360   -4.5380    1.8250 c         1 MOL      0.591919
     75 O13        -4.7990   -5.3750    2.6990 o         1 MOL     -0.564306
     76 H32        -5.9770   -2.0570    0.3530 hn        1 MOL      0.216145
     77 H33        -6.8810   -4.5610    1.2940 h1        1 MOL      0.138428
     78 H34        -6.3990   -3.1020    2.2060 h1        1 MOL      0.138428
     79 N8         -3.7250   -4.1370    1.1800 n         1 MOL     -0.124898
     80 C25        -2.3890   -4.6940    1.3860 c3        1 MOL     -0.402663
     81 C26        -1.3190   -3.6220    1.3200 c         1 MOL      0.821451
     82 O14        -1.5370   -2.5150    0.7890 o         1 MOL     -0.631894
     83 C27        -2.0930   -5.7450    0.3330 c3        1 MOL      0.461946
     84 C28        -2.8480   -7.0710    0.3550 c3        1 MOL     -0.520353
     85 O15        -2.2360   -5.1300   -0.8950 oh        1 MOL     -0.623202
     86 H35        -3.8620   -3.4390    0.4710 hn        1 MOL      0.184151
     87 H36        -2.3180   -5.2680    2.3080 h1        1 MOL      0.135500
     88 H37        -1.0340   -5.9960    0.2560 h1        1 MOL      0.010040
     89 H38        -3.0090   -4.5630   -0.9350 ho        1 MOL      0.418858
     90 H39        -3.9160   -6.9280    0.1620 hc        1 MOL      0.136393
     91 H40        -2.4700   -7.7570   -0.4050 hc        1 MOL      0.136393
     92 H41        -2.7530   -7.4650    1.3670 hc        1 MOL      0.136393
     93 N9         -0.1160   -3.9230    1.8630 n         1 MOL     -0.672123
     94 C29         1.0010   -2.9460    2.0500 c3        1 MOL     -0.016814
     95 C30         2.2780   -3.5510    1.3210 c         1 MOL      0.546538
     96 O16         2.9120   -4.5030    1.8160 o         1 MOL     -0.540776
     97 C31         1.1280   -2.6870    3.5840 c3        1 MOL      0.104886
     98 C32        -0.0800   -1.9740    4.1380 c3        1 MOL      0.127118
     99 C33         2.3290   -1.7770    3.8900 c3        1 MOL     -0.374181
    100 C34        -0.1130   -1.8860    5.7270 c3        1 MOL     -0.229785
    101 H42        -0.0010   -4.8030    2.3480 hn        1 MOL      0.321441
    102 H43         0.8830   -1.9780    1.5640 h1        1 MOL      0.172034
    103 H44         1.3770   -3.5920    4.1590 hc        1 MOL      0.028117
    104 H45        -0.9870   -2.4290    3.7400 hc        1 MOL     -0.023226
    105 H46        -0.1080   -0.9850    3.6970 hc        1 MOL     -0.023226
    106 H47         2.3310   -0.7660    3.4780 hc        1 MOL      0.080074
    107 H48         2.4260   -1.7310    4.9720 hc        1 MOL      0.080074
    108 H49         3.2820   -2.1830    3.5540 hc        1 MOL      0.080074
    109 H50         0.7580   -1.3970    6.1450 hc        1 MOL      0.055740
    110 H51        -1.0150   -1.4510    6.1700 hc        1 MOL      0.055740
    111 H52        -0.0270   -2.9140    6.1080 hc        1 MOL      0.055740
    112 N10         2.7240   -2.9580    0.1910 n         1 MOL     -0.330898
    113 C35         4.0330   -3.1280   -0.5410 c3        1 MOL     -0.008023
    114 C36         5.2610   -2.5600    0.1500 c         1 MOL      0.213144
    115 O17         5.1920   -1.8100    1.1340 o         1 MOL     -0.238178
    116 C37         3.9470   -2.4940   -1.9710 c3        1 MOL     -0.010132
    117 C38         2.6750   -2.8330   -2.6910 c3        1 MOL     -0.383303
    118 O18         3.9730   -1.0930   -1.7610 oh        1 MOL     -0.340470
    119 H53         2.2190   -2.1840   -0.1990 hn        1 MOL      0.304752
    120 H54         4.0710   -4.2200   -0.6570 h1        1 MOL      0.111607
    121 H55         4.8480   -2.7830   -2.5210 h1        1 MOL      0.068393
    122 H56         3.6980   -0.6810   -2.5900 ho        1 MOL      0.345287
    123 H57         2.7480   -2.4590   -3.7160 hc        1 MOL      0.122059
    124 H58         2.6950   -3.9140   -2.8360 hc        1 MOL      0.122059
    125 H59         1.8060   -2.4690   -2.1360 hc        1 MOL      0.122059
    126 N11         6.4840   -2.8410   -0.3730 n         1 MOL     -0.203041
    127 C39         7.8070   -2.1790   -0.0720 c3        1 MOL     -0.153941
    128 C40         7.8180   -0.6610   -0.1840 c         1 MOL      0.371347
    129 O19         8.4470    0.0360    0.6290 o         1 MOL     -0.460377
    130 C41         8.9580   -2.7640   -0.9170 c3        1 MOL      0.214588
    131 C42         9.2570   -4.2470   -0.5540 c3        1 MOL     -0.240916
    132 O20         8.6900   -2.7980   -2.3440 oh        1 MOL     -0.656868
    133 H60         6.4600   -3.4950   -1.1390 hn        1 MOL      0.242192
    134 H61         7.9280   -2.3690    0.9960 h1        1 MOL      0.153098
    135 H62         9.8950   -2.2140   -0.7800 h1        1 MOL      0.080504
    136 H63         9.4170   -3.2620   -2.7830 ho        1 MOL      0.432257
    137 H64         8.3210   -4.7870   -0.4910 hc        1 MOL      0.071581
    138 H65         9.9570   -4.7170   -1.2540 hc        1 MOL      0.071581
    139 H66         9.6200   -4.2680    0.4760 hc        1 MOL      0.071581
    140 N12         7.2010   -0.1090   -1.2430 n         1 MOL     -0.210991
    141 C43         6.9520    1.2480   -1.4580 c3        1 MOL     -0.043040
    142 C44         6.2080    1.8790   -0.3350 c         1 MOL      0.250219
    143 O21         6.6460    2.8540    0.2180 o         1 MOL     -0.485521
    144 C45         6.2440    1.4390   -2.8210 c3        1 MOL     -0.048635
    145 C46         6.0470    2.9480   -3.1960 c3        1 MOL     -0.000382
    146 C47         5.8480    3.0600   -4.7600 c3        1 MOL      0.037142
    147 C48         5.6100    4.5350   -5.1850 c3        1 MOL      0.048206
    148 N13         4.6590    5.2440   -4.3380 n4        1 MOL     -0.252134
    149 H67         6.8360   -0.7750   -1.9070 hn        1 MOL      0.218883
    150 H68         7.8640    1.8380   -1.4780 h1        1 MOL      0.108219
    151 H69         5.2700    0.9470   -2.7030 hc        1 MOL      0.003684
    152 H70         6.7830    0.9600   -3.6350 hc        1 MOL      0.003684
    153 H71         6.9820    3.4350   -2.9440 hc        1 MOL      0.006770
    154 H72         5.2330    3.3480   -2.6000 hc        1 MOL      0.006770
    155 H73         4.9350    2.5380   -5.0590 hc        1 MOL      0.037857
    156 H74         6.7470    2.7110   -5.2790 hc        1 MOL      0.037857
    157 H75         5.2470    4.5560   -6.2160 hx        1 MOL      0.061117
    158 H76         6.5630    5.0640   -5.2200 hx        1 MOL      0.061117
    159 H77         5.1440    5.5450   -3.5040 hn        1 MOL      0.301855
    160 H78         4.4520    6.1380   -4.7710 hn        1 MOL      0.301855
    161 H79         3.8220    4.6970   -4.1990 hn        1 MOL      0.301855
    162 N14         5.0710    1.2760    0.0000 n         1 MOL      0.184601
    163 C49         4.2450    1.6850    1.1360 c3        1 MOL     -0.493547
    164 C50         4.9150    1.5860    2.5100 c         1 MOL      0.573237
    165 O22         4.8640    2.5070    3.2840 o         1 MOL     -0.555069
    166 C51         2.8960    1.1480    1.0160 c3        1 MOL      0.273393
    167 C52         2.0260    1.5410   -0.1820 c3        1 MOL     -0.356078
    168 C53         0.6580    0.9200   -0.2640 c         1 MOL      0.912865
    169 O23        -0.3660    1.6250   -0.4690 o         1 MOL     -0.808773
    170 O24         0.5910   -0.2590   -0.0450 o         1 MOL     -0.808773
    171 H80         4.7900    0.5220   -0.6090 hn        1 MOL      0.128684
    172 H81         4.1350    2.7730    1.0360 h1        1 MOL      0.126682
    173 H82         2.3170    1.3290    1.9260 hc        1 MOL      0.012936
    174 H83         2.9850    0.0630    0.9820 hc        1 MOL      0.012936
    175 H84         2.5890    1.3050   -1.0960 hc        1 MOL      0.018994
    176 H85         1.8600    2.6210   -0.1330 hc        1 MOL      0.018994
    177 N15         5.5590    0.4480    2.8290 n         1 MOL     -0.045560
    178 C54         6.1970    0.2150    4.1340 c3        1 MOL     -0.435728
    179 H86         6.0540   -0.8250    4.4270 h1        1 MOL      0.142724
    180 H87         7.2640    0.4270    4.0600 h1        1 MOL      0.142724
    181 H88         5.7470    0.8680    4.8810 h1        1 MOL      0.142724
    182 H89         5.5380   -0.3030    2.1550 hn        1 MOL      0.075728
    183 Ca1        -1.7080   -0.7720   -1.2820 Ca        1 MOL      1.746181
    184 O25        -0.1510   -0.2730   -3.4090 oh        1 MOL     -0.842797
    185 H90        -0.6510    0.4360   -3.7950 ho        1 MOL      0.395058
    186 H91        -0.3740   -1.0470   -3.9310 ho        1 MOL      0.395058
    187 O26        -0.5880   -3.2370   -2.0960 oh        1 MOL     -0.842797
    188 H92        -0.3530   -3.4650   -2.9890 ho        1 MOL      0.395058
    189 H93        -1.0510   -4.0010   -1.7650 ho        1 MOL      0.395058
@<TRIPOS>BOND
     1    1    2 1   
     2    1    4 1   
     3    1    5 1   
     4    1    6 1   
     5    2    3 2   
     6    2    7 1   
     7    7    8 1   
     8    7   15 1   
     9    8    9 1   
    10    8   11 1   
    11    8   16 1   
    12    9   10 2   
    13    9   19 1   
    14   11   12 1   
    15   11   17 1   
    16   11   18 1   
    17   12   13 1   
    18   12   14 1   
    19   19   20 1   
    20   19   28 1   
    21   20   21 1   
    22   20   23 1   
    23   20   29 1   
    24   21   22 2   
    25   21   41 1   
    26   23   24 1   
    27   23   30 1   
    28   23   31 1   
    29   24   25 1   
    30   24   32 1   
    31   24   33 1   
    32   25   26 1   
    33   25   34 1   
    34   25   35 1   
    35   26   27 1   
    36   26   36 1   
    37   26   37 1   
    38   27   38 1   
    39   27   39 1   
    40   27   40 1   
    41   41   42 1   
    42   41   49 1   
    43   42   43 1   
    44   42   45 1   
    45   42   50 1   
    46   43   44 2   
    47   43   53 1   
    48   45   46 1   
    49   45   51 1   
    50   45   52 1   
    51   46   47 1   
    52   46   48 1   
    53   53   54 1   
    54   53   57 1   
    55   54   55 1   
    56   54   58 1   
    57   54   59 1   
    58   55   56 2   
    59   55   60 1   
    60   60   61 1   
    61   60   68 1   
    62   61   62 1   
    63   61   64 1   
    64   61   69 1   
    65   62   63 2   
    66   62   72 1   
    67   64   65 1   
    68   64   70 1   
    69   64   71 1   
    70   65   66 1   
    71   65   67 1   
    72   72   73 1   
    73   72   76 1   
    74   73   74 1   
    75   73   77 1   
    76   73   78 1   
    77   74   75 2   
    78   74   79 1   
    79   79   80 1   
    80   79   86 1   
    81   80   81 1   
    82   80   83 1   
    83   80   87 1   
    84   81   82 2   
    85   81   93 1   
    86   83   84 1   
    87   83   85 1   
    88   83   88 1   
    89   84   90 1   
    90   84   91 1   
    91   84   92 1   
    92   85   89 1   
    93   93   94 1   
    94   93  101 1   
    95   94   95 1   
    96   94   97 1   
    97   94  102 1   
    98   95   96 2   
    99   95  112 1   
   100   97   98 1   
   101   97   99 1   
   102   97  103 1   
   103   98  100 1   
   104   98  104 1   
   105   98  105 1   
   106   99  106 1   
   107   99  107 1   
   108   99  108 1   
   109  100  109 1   
   110  100  110 1   
   111  100  111 1   
   112  112  113 1   
   113  112  119 1   
   114  113  114 1   
   115  113  116 1   
   116  113  120 1   
   117  114  115 2   
   118  114  126 1   
   119  116  117 1   
   120  116  118 1   
   121  116  121 1   
   122  117  123 1   
   123  117  124 1   
   124  117  125 1   
   125  118  122 1   
   126  126  127 1   
   127  126  133 1   
   128  127  128 1   
   129  127  130 1   
   130  127  134 1   
   131  128  129 2   
   132  128  140 1   
   133  130  131 1   
   134  130  132 1   
   135  130  135 1   
   136  131  137 1   
   137  131  138 1   
   138  131  139 1   
   139  132  136 1   
   140  140  141 1   
   141  140  149 1   
   142  141  142 1   
   143  141  144 1   
   144  141  150 1   
   145  142  143 2   
   146  142  162 1   
   147  144  145 1   
   148  144  151 1   
   149  144  152 1   
   150  145  146 1   
   151  145  153 1   
   152  145  154 1   
   153  146  147 1   
   154  146  155 1   
   155  146  156 1   
   156  147  148 1   
   157  147  157 1   
   158  147  158 1   
   159  148  159 1   
   160  148  160 1   
   161  148  161 1   
   162  162  163 1   
   163  162  171 1   
   164  163  164 1   
   165  163  166 1   
   166  163  172 1   
   167  164  165 2   
   168  164  177 1   
   169  166  167 1   
   170  166  173 1   
   171  166  174 1   
   172  167  168 1   
   173  167  175 1   
   174  167  176 1   
   175  168  169 1   
   176  168  170 1   
   177  177  178 1   
   178  177  182 1   
   179  178  179 1   
   180  178  180 1   
   181  178  181 1   
   182  184  185 1   
   183  184  186 1   
   184  187  188 1   
   185  187  189 1   
@<TRIPOS>SUBSTRUCTURE
     1 MOL         1 TEMP              0 ****  ****    0 ROOT
