@<TRIPOS>MOLECULE
MOL
  189   185     1     0     0
SMALL
resp


@<TRIPOS>ATOM
      1 C1         -0.7140   -3.9730    5.7810 c3        1 MOL     -0.337814
      2 C2          0.0490   -3.4610    4.5620 c         1 MOL      0.676076
      3 O1          0.3480   -2.2600    4.4550 o         1 MOL     -0.559188
      4 H1         -0.5860   -3.2750    6.6090 hc        1 MOL      0.087182
      5 H2         -1.7730   -4.0570    5.5380 hc        1 MOL      0.087182
      6 H3         -0.3270   -4.9510    6.0670 hc        1 MOL      0.087182
      7 N1          0.5070   -4.4350    3.7270 n         1 MOL     -0.544738
      8 C3          1.2600   -4.1860    2.5200 c3        1 MOL      0.286990
      9 C4          0.9850   -5.1330    1.3760 c         1 MOL      0.440279
     10 O2          0.6890   -6.2920    1.6440 o         1 MOL     -0.558034
     11 C5          2.7780   -4.1680    2.8420 c3        1 MOL     -0.304500
     12 C6          3.6140   -3.9790    1.5840 c         1 MOL      0.591610
     13 O3          4.0940   -4.9950    1.0810 o         1 MOL     -0.612621
     14 O4          3.5670   -2.8300    1.1090 o         1 MOL     -0.612621
     15 H4          0.2520   -5.4110    3.8180 hn        1 MOL      0.293811
     16 H5          0.9980   -3.1660    2.2280 h1        1 MOL     -0.136436
     17 H6          2.9440   -5.1720    3.2310 hc        1 MOL      0.059324
     18 H7          3.0730   -3.4450    3.6070 hc        1 MOL      0.059324
     19 N2          1.0100   -4.6670    0.1170 n         1 MOL     -0.042451
     20 C7          0.6570   -5.4220   -1.1240 c3        1 MOL     -0.265149
     21 C8          1.6730   -5.2490   -2.2580 c         1 MOL      0.594109
     22 O5          1.5570   -5.8890   -3.2470 o         1 MOL     -0.581030
     23 C9         -0.8100   -5.2220   -1.5330 c3        1 MOL      0.077781
     24 C10        -1.1540   -3.8660   -2.2020 c3        1 MOL      0.047394
     25 C11        -1.7140   -5.3830   -0.2150 c3        1 MOL     -0.164940
     26 C12        -2.6090   -3.6990   -2.6220 c3        1 MOL     -0.081999
     27 H8          0.9000   -3.6760   -0.0270 hn        1 MOL      0.337593
     28 H9          0.8090   -6.4760   -0.8930 h1        1 MOL      0.124578
     29 H10        -1.2200   -5.9390   -2.2490 hc        1 MOL      0.003720
     30 H11        -0.6260   -3.8010   -3.1510 hc        1 MOL      0.017773
     31 H12        -0.8570   -3.0220   -1.5840 hc        1 MOL      0.017773
     32 H13        -2.7670   -5.3850   -0.4900 hc        1 MOL      0.031032
     33 H14        -1.4240   -6.3120    0.2730 hc        1 MOL      0.031032
     34 H15        -1.5450   -4.5880    0.5060 hc        1 MOL      0.031032
     35 H16        -2.6010   -2.7120   -3.0690 hc        1 MOL      0.011056
     36 H17        -3.0230   -4.3300   -3.4120 hc        1 MOL      0.011056
     37 H18        -3.3270   -3.6870   -1.8070 hc        1 MOL      0.011056
     38 N3          2.7660   -4.4710   -2.0100 n         1 MOL     -0.205717
     39 C13         3.8240   -4.2040   -3.0030 c3        1 MOL      0.045037
     40 C14         5.2520   -3.8080   -2.4890 c         1 MOL      0.344783
     41 O6          6.2490   -4.0820   -3.2280 o         1 MOL     -0.570872
     42 C15         3.3280   -2.9500   -3.7850 c3        1 MOL     -0.272567
     43 C16         2.7600   -1.8900   -2.9040 c         1 MOL      0.747796
     44 O7          3.0920   -1.7150   -1.7080 o         1 MOL     -0.696791
     45 O8          1.9000   -1.1880   -3.3810 o         1 MOL     -0.696791
     46 H19         2.7690   -3.9410   -1.1500 hn        1 MOL     -0.083121
     47 H20         3.8580   -5.1200   -3.5900 h1        1 MOL      0.080765
     48 H21         2.5590   -3.2520   -4.5000 hc        1 MOL      0.074512
     49 H22         4.2280   -2.6400   -4.3180 hc        1 MOL      0.074512
     50 N4          5.4370   -3.2280   -1.3060 n         1 MOL      0.025152
     51 C17         6.7310   -2.8830   -0.7280 c3        1 MOL     -0.270395
     52 C18         7.2610   -1.4600   -1.1050 c         1 MOL      0.590378
     53 O9          8.5270   -1.3710   -1.0390 o         1 MOL     -0.643311
     54 H23         4.6350   -2.9730   -0.7510 hn        1 MOL      0.110211
     55 H24         7.4570   -3.6190   -1.0790 h1        1 MOL      0.112274
     56 H25         6.6290   -2.7860    0.3590 h1        1 MOL      0.112274
     57 N5          6.5330   -0.3920   -1.5370 n         1 MOL     -0.239067
     58 C19         6.9430    0.8870   -2.1010 c3        1 MOL     -0.088424
     59 C20         7.2580    1.9760   -1.0200 c         1 MOL      0.498177
     60 O10         7.5070    3.1130   -1.4310 o         1 MOL     -0.522214
     61 C21         5.7640    1.2710   -3.0310 c3        1 MOL     -0.179513
     62 C22         4.3840    1.3940   -2.4380 c         1 MOL      0.840843
     63 O11         4.1320    1.0370   -1.2570 o         1 MOL     -0.706588
     64 O12         3.5090    1.9590   -3.1710 o         1 MOL     -0.706588
     65 H26         5.5380   -0.4810   -1.4540 hn        1 MOL      0.136213
     66 H27         7.8280    0.7250   -2.7140 h1        1 MOL      0.123611
     67 H28         5.5930    0.4570   -3.7410 hc        1 MOL      0.045137
     68 H29         5.9190    2.1790   -3.6200 hc        1 MOL      0.045137
     69 N6          7.4470    1.6010    0.2420 n         1 MOL     -0.394715
     70 C23         7.6350    2.5520    1.3490 c3        1 MOL      0.044087
     71 C24         6.4800    3.5460    1.5870 c         1 MOL      0.434320
     72 O13         6.7740    4.6130    2.1650 o         1 MOL     -0.563896
     73 H30         7.2470    0.6490    0.5260 hn        1 MOL      0.268275
     74 H31         8.5200    3.1310    1.1120 h1        1 MOL      0.057449
     75 H32         7.9400    2.0810    2.2820 h1        1 MOL      0.057449
     76 N7          5.1960    3.2260    1.2400 n         1 MOL     -0.338583
     77 C25         3.9840    4.0520    1.4020 c3        1 MOL      0.022107
     78 C26         2.7180    3.1590    1.6530 c         1 MOL      0.422151
     79 O14         2.6720    1.9790    1.3030 o         1 MOL     -0.441046
     80 C27         3.8310    4.7060    0.0120 c3        1 MOL     -0.060267
     81 C28         4.9390    5.7220   -0.2290 c3        1 MOL     -0.159535
     82 C29         4.5500    6.9360   -1.1370 c         1 MOL      0.664215
     83 N8          5.4860    7.8300   -1.2640 n         1 MOL     -0.814542
     84 O15         3.4860    7.0400   -1.6890 o         1 MOL     -0.556697
     85 H33         4.9990    2.3440    0.7900 hn        1 MOL      0.219453
     86 H34         4.0480    4.7710    2.2140 h1        1 MOL      0.076634
     87 H35         2.8900    5.2640   -0.0010 hc        1 MOL      0.062809
     88 H36         3.8140    3.9110   -0.7340 hc        1 MOL      0.062809
     89 H37         5.8540    5.2290   -0.5390 hc        1 MOL      0.062445
     90 H38         5.1300    6.0350    0.8020 hc        1 MOL      0.062445
     91 H39         6.3530    7.7510   -0.7520 hn        1 MOL      0.356357
     92 H40         5.2860    8.5660   -1.9210 hn        1 MOL      0.356357
     93 N9          1.6620    3.6820    2.2890 n         1 MOL     -0.505422
     94 C30         0.3210    3.1070    2.5090 c3        1 MOL      0.036465
     95 C31        -0.5460    3.6340    1.4120 c         1 MOL      0.771252
     96 O16        -0.4480    4.7390    0.9960 o         1 MOL     -0.635783
     97 C32        -0.1980    3.4600    3.9070 c3        1 MOL      0.154990
     98 C33        -0.7150    4.8890    4.0950 c3        1 MOL     -0.361408
     99 C34        -1.3830    2.4640    4.2200 c3        1 MOL     -0.361408
    100 H41         1.8010    4.6280    2.6140 hn        1 MOL      0.287490
    101 H42         0.3620    2.0200    2.3950 h1        1 MOL      0.149020
    102 H43         0.5930    3.2570    4.6190 hc        1 MOL      0.011676
    103 H44         0.0490    5.6250    3.8710 hc        1 MOL      0.084492
    104 H45        -1.7100    5.0710    3.6910 hc        1 MOL      0.084492
    105 H46        -1.0130    5.1410    5.1160 hc        1 MOL      0.084492
    106 H47        -0.8500    1.5250    4.3640 hc        1 MOL      0.084492
    107 H48        -1.9550    2.8880    5.0460 hc        1 MOL      0.084492
    108 H49        -1.9520    2.3430    3.2930 hc        1 MOL      0.084492
    109 N10        -1.4380    2.7870    0.8800 n         1 MOL     -0.413344
    110 C35        -2.3590    2.9980   -0.2160 c3        1 MOL      0.210771
    111 C36        -3.8330    2.9370    0.4100 c         1 MOL      0.050898
    112 O17        -3.9590    2.5030    1.5730 o         1 MOL     -0.307102
    113 C37        -2.0350    1.8660   -1.1860 c3        1 MOL     -0.313250
    114 C38        -3.1310    1.6940   -2.2490 c         1 MOL      0.646354
    115 N11        -3.3660    2.6350   -3.1410 n         1 MOL     -0.730126
    116 O18        -3.9440    0.7690   -2.0900 o         1 MOL     -0.533449
    117 H50        -1.5260    1.8980    1.3460 hn        1 MOL      0.185534
    118 H51        -2.1130    3.9580   -0.6900 h1        1 MOL      0.056871
    119 H52        -1.6850    0.9680   -0.6790 hc        1 MOL      0.135396
    120 H53        -1.1200    2.1760   -1.6810 hc        1 MOL      0.135396
    121 H54        -2.7550    3.4340   -3.1700 hn        1 MOL      0.330515
    122 H55        -4.2410    2.5630   -3.6350 hn        1 MOL      0.330515
    123 N12        -4.8890    3.2190   -0.3230 n         1 MOL      0.001707
    124 C39        -6.2500    3.1820    0.0710 c3        1 MOL      0.096690
    125 C40        -6.6940    1.7960    0.4830 c         1 MOL      0.357803
    126 O19        -7.3400    1.6970    1.5140 o         1 MOL     -0.546583
    127 C41        -7.2240    3.8360   -0.9540 c3        1 MOL     -0.129521
    128 C42        -7.2720    3.2770   -2.3430 ca        1 MOL      0.126164
    129 C43        -7.9720    2.0970   -2.7290 ca        1 MOL     -0.232266
    130 C44        -6.4220    3.8390   -3.3340 ca        1 MOL     -0.232266
    131 C45        -7.8790    1.5340   -4.0700 ca        1 MOL     -0.187672
    132 C46        -6.3430    3.3840   -4.6360 ca        1 MOL     -0.187672
    133 C47        -7.0320    2.2220   -5.0350 ca        1 MOL      0.205868
    134 O20        -6.6430    1.5870   -6.1670 oh        1 MOL     -0.383634
    135 H56        -4.8220    3.4740   -1.2970 hn        1 MOL      0.011197
    136 H57        -6.3160    3.7210    1.0130 h1        1 MOL      0.047141
    137 H58        -6.9800    4.9000   -0.9750 hc        1 MOL      0.048787
    138 H59        -8.2130    3.9240   -0.5230 hc        1 MOL      0.048787
    139 H60        -8.4030    1.4790   -1.9650 ha        1 MOL      0.137739
    140 H61        -5.7120    4.5760   -2.9720 ha        1 MOL      0.137739
    141 H62        -8.3530    0.6490   -4.4440 ha        1 MOL      0.144484
    142 H63        -5.6580    3.8030   -5.3620 ha        1 MOL      0.144484
    143 H64        -5.9360    2.0850   -6.5860 ho        1 MOL      0.307284
    144 N13        -6.3650    0.7160   -0.3180 n         1 MOL      0.007014
    145 C48        -6.6030   -0.7150    0.0220 c3        1 MOL     -0.220468
    146 C49        -5.8490   -1.1480    1.2660 c         1 MOL      0.451742
    147 O21        -6.3820   -1.8680    2.0400 o         1 MOL     -0.476411
    148 C50        -6.3470   -1.5570   -1.2320 c3        1 MOL      0.252943
    149 C51        -6.5350   -3.0940   -1.2410 c3        1 MOL     -0.374132
    150 C52        -7.9830   -3.4740   -1.1640 c         1 MOL      0.695990
    151 O22        -8.3960   -4.2270   -0.2360 o         1 MOL     -0.720400
    152 O23        -8.8640   -2.9950   -1.9530 o         1 MOL     -0.720400
    153 H65        -5.7700    0.8930   -1.1100 hn        1 MOL      0.205197
    154 H66        -7.6700   -0.7820    0.2180 h1        1 MOL      0.128133
    155 H67        -5.3580   -1.2600   -1.5660 hc        1 MOL     -0.040895
    156 H68        -6.9250   -1.2220   -2.0850 hc        1 MOL     -0.040895
    157 H69        -6.0580   -3.4580   -0.3400 hc        1 MOL      0.078260
    158 H70        -6.0670   -3.4430   -2.1640 hc        1 MOL      0.078260
    159 N14        -4.6220   -0.7130    1.4960 n         1 MOL     -0.210705
    160 C53        -3.8430   -1.1250    2.6740 c3        1 MOL     -0.089622
    161 C54        -4.4450   -0.4330    3.8890 c         1 MOL      0.365407
    162 O24        -4.3080   -0.8690    5.0200 o         1 MOL     -0.540510
    163 C55        -2.4170   -0.6430    2.3940 c3        1 MOL      0.025153
    164 C56        -1.8600   -1.4080    1.1790 c3        1 MOL      0.067925
    165 C57        -0.3820   -1.0590    0.8750 c         1 MOL      0.910570
    166 O25         0.2930   -1.8310    0.1690 o         1 MOL     -0.833510
    167 O26        -0.0090    0.0860    1.1840 o         1 MOL     -0.833510
    168 H71        -4.2640    0.0790    0.9700 hn        1 MOL      0.109119
    169 H72        -3.8990   -2.2080    2.7980 h1        1 MOL      0.119287
    170 H73        -1.7670   -0.8710    3.2310 hc        1 MOL      0.020701
    171 H74        -2.5100    0.4360    2.2440 hc        1 MOL      0.020701
    172 H75        -2.4630   -1.2640    0.2870 hc        1 MOL     -0.039210
    173 H76        -1.9340   -2.4860    1.3160 hc        1 MOL     -0.039210
    174 N15        -5.0380    0.7820    3.7330 n         1 MOL      0.032999
    175 C58        -5.5980    1.5980    4.7950 c3        1 MOL     -0.212480
    176 H77        -4.8280    1.8030    5.5380 h1        1 MOL      0.074189
    177 H78        -5.9600    2.5380    4.3780 h1        1 MOL      0.074189
    178 H79        -6.4240    1.0650    5.2660 h1        1 MOL      0.074189
    179 H80        -5.1000    1.2190    2.8230 hn        1 MOL      0.047649
    180 Ca1         2.4950   -0.4780    0.2950 Ca        1 MOL      1.764857
    181 O27         2.2680   -0.6550    3.2180 oh        1 MOL     -0.900011
    182 H81         2.4230   -0.0020    3.9070 ho        1 MOL      0.415582
    183 H82         1.6150   -1.2490    3.5810 ho        1 MOL      0.415582
    184 O28         1.0830    1.1260   -1.6090 oh        1 MOL     -0.900011
    185 H83         1.8200    1.4380   -2.1260 ho        1 MOL      0.415582
    186 H84         0.5470    0.6240   -2.2220 ho        1 MOL      0.415582
    187 O29         4.9880   -0.6460    1.6330 oh        1 MOL     -0.900011
    188 H85         4.6050   -1.4940    1.8710 ho        1 MOL      0.415582
    189 H86         5.7980   -0.5910    2.1380 ho        1 MOL      0.415582
@<TRIPOS>BOND
     1    1    2 1   
     2    1    4 1   
     3    1    5 1   
     4    1    6 1   
     5    2    3 2   
     6    2    7 1   
     7    7    8 1   
     8    7   15 1   
     9    8    9 1   
    10    8   11 1   
    11    8   16 1   
    12    9   10 2   
    13    9   19 1   
    14   11   12 1   
    15   11   17 1   
    16   11   18 1   
    17   12   13 1   
    18   12   14 1   
    19   19   20 1   
    20   19   27 1   
    21   20   21 1   
    22   20   23 1   
    23   20   28 1   
    24   21   22 2   
    25   21   38 1   
    26   23   24 1   
    27   23   25 1   
    28   23   29 1   
    29   24   26 1   
    30   24   30 1   
    31   24   31 1   
    32   25   32 1   
    33   25   33 1   
    34   25   34 1   
    35   26   35 1   
    36   26   36 1   
    37   26   37 1   
    38   38   39 1   
    39   38   46 1   
    40   39   40 1   
    41   39   42 1   
    42   39   47 1   
    43   40   41 2   
    44   40   50 1   
    45   42   43 1   
    46   42   48 1   
    47   42   49 1   
    48   43   44 1   
    49   43   45 1   
    50   50   51 1   
    51   50   54 1   
    52   51   52 1   
    53   51   55 1   
    54   51   56 1   
    55   52   53 2   
    56   52   57 1   
    57   57   58 1   
    58   57   65 1   
    59   58   59 1   
    60   58   61 1   
    61   58   66 1   
    62   59   60 2   
    63   59   69 1   
    64   61   62 1   
    65   61   67 1   
    66   61   68 1   
    67   62   63 1   
    68   62   64 1   
    69   69   70 1   
    70   69   73 1   
    71   70   71 1   
    72   70   74 1   
    73   70   75 1   
    74   71   72 2   
    75   71   76 1   
    76   76   77 1   
    77   76   85 1   
    78   77   78 1   
    79   77   80 1   
    80   77   86 1   
    81   78   79 2   
    82   78   93 1   
    83   80   81 1   
    84   80   87 1   
    85   80   88 1   
    86   81   82 1   
    87   81   89 1   
    88   81   90 1   
    89   82   83 1   
    90   82   84 2   
    91   83   91 1   
    92   83   92 1   
    93   93   94 1   
    94   93  100 1   
    95   94   95 1   
    96   94   97 1   
    97   94  101 1   
    98   95   96 2   
    99   95  109 1   
   100   97   98 1   
   101   97   99 1   
   102   97  102 1   
   103   98  103 1   
   104   98  104 1   
   105   98  105 1   
   106   99  106 1   
   107   99  107 1   
   108   99  108 1   
   109  109  110 1   
   110  109  117 1   
   111  110  111 1   
   112  110  113 1   
   113  110  118 1   
   114  111  112 2   
   115  111  123 1   
   116  113  114 1   
   117  113  119 1   
   118  113  120 1   
   119  114  115 1   
   120  114  116 2   
   121  115  121 1   
   122  115  122 1   
   123  123  124 1   
   124  123  135 1   
   125  124  125 1   
   126  124  127 1   
   127  124  136 1   
   128  125  126 2   
   129  125  144 1   
   130  127  128 1   
   131  127  137 1   
   132  127  138 1   
   133  128  129 ar  
   134  128  130 ar  
   135  129  131 ar  
   136  129  139 1   
   137  130  132 ar  
   138  130  140 1   
   139  131  133 ar  
   140  131  141 1   
   141  132  133 ar  
   142  132  142 1   
   143  133  134 1   
   144  134  143 1   
   145  144  145 1   
   146  144  153 1   
   147  145  146 1   
   148  145  148 1   
   149  145  154 1   
   150  146  147 2   
   151  146  159 1   
   152  148  149 1   
   153  148  155 1   
   154  148  156 1   
   155  149  150 1   
   156  149  157 1   
   157  149  158 1   
   158  150  151 1   
   159  150  152 1   
   160  159  160 1   
   161  159  168 1   
   162  160  161 1   
   163  160  163 1   
   164  160  169 1   
   165  161  162 2   
   166  161  174 1   
   167  163  164 1   
   168  163  170 1   
   169  163  171 1   
   170  164  165 1   
   171  164  172 1   
   172  164  173 1   
   173  165  166 1   
   174  165  167 1   
   175  174  175 1   
   176  174  179 1   
   177  175  176 1   
   178  175  177 1   
   179  175  178 1   
   180  181  182 1   
   181  181  183 1   
   182  184  185 1   
   183  184  186 1   
   184  187  188 1   
   185  187  189 1   
@<TRIPOS>SUBSTRUCTURE
     1 MOL         1 TEMP              0 ****  ****    0 ROOT
