@<TRIPOS>MOLECULE
MOL
  189   185     1     0     0
SMALL
resp


@<TRIPOS>ATOM
      1 C1          0.0060    2.7960   -5.7900 c3        1 MOL     -0.440210
      2 C2          0.5540    2.5980   -4.3500 c         1 MOL      0.604623
      3 O1         -0.2480    2.8510   -3.4450 o         1 MOL     -0.559408
      4 H1         -0.7820    3.5490   -5.7780 hc        1 MOL      0.116610
      5 H2          0.8130    3.1260   -6.4440 hc        1 MOL      0.116610
      6 H3         -0.3980    1.8530   -6.1580 hc        1 MOL      0.116610
      7 N1          1.7980    2.2500   -4.1010 n         1 MOL     -0.598685
      8 C3          2.2250    1.9530   -2.7220 c3        1 MOL      0.313086
      9 C4          2.4520    3.2740   -1.9400 c         1 MOL      0.337513
     10 O2          3.4850    3.8790   -2.0810 o         1 MOL     -0.497643
     11 C5          3.5060    1.0960   -2.7920 c3        1 MOL     -0.240630
     12 C6          4.0650    0.6700   -1.3980 c         1 MOL      0.972524
     13 O3          3.3130    0.6580   -0.4040 o         1 MOL     -0.791932
     14 O4          5.2700    0.3260   -1.2800 o         1 MOL     -0.791932
     15 H4          2.3640    1.9780   -4.8960 hn        1 MOL      0.344854
     16 H5          1.5290    1.3290   -2.1580 h1        1 MOL     -0.021129
     17 H6          4.3100    1.6860   -3.2270 hc        1 MOL      0.031040
     18 H7          3.2380    0.1960   -3.3430 hc        1 MOL      0.031040
     19 N2          1.3750    3.7480   -1.3060 n         1 MOL     -0.078647
     20 C7          1.1950    5.0440   -0.6210 c3        1 MOL     -0.231141
     21 C8          2.1750    5.2470    0.5650 c         1 MOL      0.550136
     22 O5          2.4080    6.4100    0.9560 o         1 MOL     -0.572716
     23 C9         -0.2530    5.1200    0.0740 c3        1 MOL     -0.043522
     24 C10        -1.4240    5.0720   -0.9430 c3        1 MOL      0.022334
     25 C11        -1.4570    6.2820   -1.9510 c3        1 MOL     -0.248464
     26 C12        -0.8010    5.9690   -3.3220 c3        1 MOL      0.154388
     27 N3         -0.3950    7.1390   -4.1690 n4        1 MOL     -0.444143
     28 H8          0.5180    3.2300   -1.4470 hn        1 MOL      0.259058
     29 H9          1.3910    5.9130   -1.2480 h1        1 MOL      0.087943
     30 H10        -0.3820    6.0360    0.6600 hc        1 MOL      0.046494
     31 H11        -0.3810    4.2810    0.7530 hc        1 MOL      0.046494
     32 H12        -2.3630    5.0470   -0.3870 hc        1 MOL      0.067273
     33 H13        -1.2540    4.1890   -1.5520 hc        1 MOL      0.067273
     34 H14        -0.7810    7.0770   -1.6290 hc        1 MOL      0.081889
     35 H15        -2.5220    6.5330   -1.9880 hc        1 MOL      0.081889
     36 H16        -1.3900    5.2850   -3.9350 hx        1 MOL      0.070629
     37 H17         0.0860    5.3810   -3.0650 hx        1 MOL      0.070629
     38 H18         0.0540    6.7920   -5.0110 hn        1 MOL      0.337340
     39 H19        -1.1160    7.7580   -4.5150 hn        1 MOL      0.337340
     40 H20         0.2250    7.7640   -3.6900 hn        1 MOL      0.337340
     41 N4          2.7490    4.2010    1.2150 n         1 MOL     -0.337595
     42 C13         3.5010    4.2980    2.4460 c3        1 MOL      0.087691
     43 C14         4.8080    3.4820    2.4880 c         1 MOL      0.423300
     44 O6          5.6580    3.6940    3.3740 o         1 MOL     -0.532230
     45 C15         2.5030    3.8690    3.5390 c3        1 MOL     -0.127357
     46 C16         1.9760    2.4770    3.5930 c         1 MOL      0.877420
     47 O7          1.2130    2.0330    4.4900 o         1 MOL     -0.758094
     48 O8          2.2830    1.6650    2.7090 o         1 MOL     -0.758094
     49 H21         2.4870    3.2820    0.9020 hn        1 MOL      0.139176
     50 H22         3.7250    5.3480    2.6460 h1        1 MOL      0.083201
     51 H23         1.6610    4.5480    3.5350 hc        1 MOL      0.013595
     52 H24         3.0150    4.0360    4.4860 hc        1 MOL      0.013595
     53 N5          5.1140    2.6420    1.4930 n         1 MOL     -0.040924
     54 C17         6.4860    2.2000    1.1090 c3        1 MOL     -0.302417
     55 C18         6.7760    0.9080    1.8630 c         1 MOL      0.720792
     56 O9          7.1800    1.0060    3.0150 o         1 MOL     -0.544521
     57 H25         4.4520    2.5080    0.7360 hn        1 MOL      0.105261
     58 H26         7.2820    2.9180    1.2820 h1        1 MOL      0.113184
     59 H27         6.5960    2.0030    0.0480 h1        1 MOL      0.113184
     60 N6          6.6890   -0.2580    1.2580 n         1 MOL     -0.577844
     61 C19         7.0020   -1.5450    1.8080 c3        1 MOL      0.053490
     62 C20         7.0780   -2.6070    0.7040 c         1 MOL      0.471992
     63 O10         7.6020   -3.6530    0.9790 o         1 MOL     -0.542995
     64 C21         5.9750   -1.8890    2.9290 c3        1 MOL     -0.272240
     65 C22         4.5390   -1.6570    2.4420 c         1 MOL      0.696117
     66 O11         4.1670   -1.8980    1.2620 o         1 MOL     -0.665432
     67 O12         3.7840   -1.0250    3.2110 o         1 MOL     -0.665432
     68 H28         6.2240   -0.2540    0.3600 hn        1 MOL      0.252373
     69 H29         7.9290   -1.3540    2.3490 h1        1 MOL      0.088307
     70 H30         6.1910   -1.2570    3.7830 hc        1 MOL      0.086832
     71 H31         6.1350   -2.9490    3.1260 hc        1 MOL      0.086832
     72 N7          6.5430   -2.4380   -0.5250 n         1 MOL     -0.246777
     73 C23         6.5900   -3.4650   -1.5840 c3        1 MOL     -0.257651
     74 C24         5.4390   -4.3780   -1.6570 c         1 MOL      0.605473
     75 O13         5.4110   -5.3490   -2.4050 o         1 MOL     -0.587684
     76 H32         6.1890   -1.5020   -0.6940 hn        1 MOL      0.290488
     77 H33         7.4620   -4.0560   -1.3190 h1        1 MOL      0.123516
     78 H34         6.7210   -3.0330   -2.5840 h1        1 MOL      0.123516
     79 N8          4.3760   -3.9920   -0.9540 n         1 MOL     -0.305662
     80 C25         3.0380   -4.5090   -1.0870 c3        1 MOL     -0.130323
     81 C26         2.0170   -3.3950   -1.2850 c         1 MOL      0.759236
     82 O14         2.1160   -2.3350   -0.6830 o         1 MOL     -0.688386
     83 C27         2.7180   -5.4740    0.0910 c3        1 MOL      0.414609
     84 C28         3.3790   -6.7840   -0.2250 c3        1 MOL     -0.594640
     85 O15         3.1170   -5.0070    1.3270 oh        1 MOL     -0.606155
     86 H35         4.5070   -3.2920   -0.2340 hn        1 MOL      0.220273
     87 H36         2.9670   -5.1980   -1.9280 h1        1 MOL      0.081791
     88 H37         1.6380   -5.5920    0.0210 h1        1 MOL      0.019057
     89 H38         4.0710   -4.8880    1.2870 ho        1 MOL      0.432977
     90 H39         3.1800   -7.4400    0.6200 hc        1 MOL      0.155433
     91 H40         2.8490   -7.0680   -1.1340 hc        1 MOL      0.155433
     92 H41         4.4510   -6.7210   -0.4210 hc        1 MOL      0.155433
     93 N9          0.8760   -3.7330   -1.9150 n         1 MOL     -0.777657
     94 C29        -0.2720   -2.8200   -2.0620 c3        1 MOL      0.161112
     95 C30        -1.3630   -3.5260   -1.2850 c         1 MOL      0.584771
     96 O16        -1.6640   -4.7040   -1.5030 o         1 MOL     -0.579119
     97 C31        -0.5510   -2.5950   -3.5730 c3        1 MOL      0.005207
     98 C32         0.4710   -1.6960   -4.3610 c3        1 MOL      0.167152
     99 C33        -1.8970   -1.9810   -3.7710 c3        1 MOL     -0.066692
    100 C34         0.2870   -1.7290   -5.8970 c3        1 MOL     -0.242214
    101 H42         0.7730   -4.6810   -2.2640 hn        1 MOL      0.355550
    102 H43        -0.0720   -1.8660   -1.5810 h1        1 MOL      0.073650
    103 H44        -0.5130   -3.5910   -4.0110 hc        1 MOL      0.024839
    104 H45         1.4580   -2.0920   -4.1490 hc        1 MOL     -0.000513
    105 H46         0.4990   -0.6560   -4.0320 hc        1 MOL     -0.000513
    106 H47        -2.2630   -2.0290   -4.8000 hc        1 MOL     -0.000631
    107 H48        -2.5780   -2.6350   -3.2150 hc        1 MOL     -0.000631
    108 H49        -2.0350   -0.9830   -3.3600 hc        1 MOL     -0.000631
    109 H50         0.2460   -2.7480   -6.2910 hc        1 MOL      0.053903
    110 H51        -0.6330   -1.2420   -6.2120 hc        1 MOL      0.053903
    111 H52         1.2120   -1.3110   -6.2930 hc        1 MOL      0.053903
    112 N10        -1.9380   -2.8080   -0.3270 n         1 MOL     -0.183766
    113 C35        -3.1970   -3.2800    0.3540 c3        1 MOL     -0.141808
    114 C36        -4.4710   -2.7960   -0.4460 c         1 MOL      0.475743
    115 O17        -4.4230   -1.9400   -1.3150 o         1 MOL     -0.347314
    116 C37        -3.2760   -2.7450    1.8250 c3        1 MOL      0.306334
    117 C38        -2.1700   -3.3190    2.7020 c3        1 MOL     -0.424006
    118 O18        -3.0550   -1.3520    1.8450 oh        1 MOL     -0.609782
    119 H53        -1.4930   -1.9200   -0.1420 hn        1 MOL      0.095048
    120 H54        -3.2090   -4.3690    0.2990 h1        1 MOL      0.095262
    121 H55        -4.1850   -3.0650    2.3210 h1        1 MOL      0.054181
    122 H56        -2.1440   -1.1150    1.6320 ho        1 MOL      0.398681
    123 H57        -1.8580   -4.3520    2.5130 hc        1 MOL      0.114090
    124 H58        -1.2440   -2.7740    2.5010 hc        1 MOL      0.114090
    125 H59        -2.3830   -3.2010    3.7650 hc        1 MOL      0.114090
    126 N11        -5.6710   -3.3220   -0.0920 n         1 MOL     -0.423604
    127 C39        -7.0120   -2.8020   -0.5610 c3        1 MOL     -0.224209
    128 C40        -7.2100   -1.3430   -0.1360 c         1 MOL      0.344604
    129 O19        -7.7520   -0.5430   -0.9610 o         1 MOL     -0.471362
    130 C41        -8.1300   -3.7040   -0.0260 c3        1 MOL      0.391855
    131 C42        -8.1460   -5.0660   -0.6290 c3        1 MOL     -0.350475
    132 O20        -8.0420   -3.7490    1.4030 oh        1 MOL     -0.624941
    133 H60        -5.6510   -3.9480    0.7000 hn        1 MOL      0.293133
    134 H61        -7.0890   -2.8710   -1.6390 h1        1 MOL      0.185858
    135 H62        -9.0640   -3.2370   -0.3490 h1        1 MOL      0.026315
    136 H63        -8.9300   -3.8600    1.7520 ho        1 MOL      0.394425
    137 H64        -7.6840   -4.9770   -1.6160 hc        1 MOL      0.097931
    138 H65        -7.6120   -5.8100   -0.0340 hc        1 MOL      0.097931
    139 H66        -9.1270   -5.4760   -0.8520 hc        1 MOL      0.097931
    140 N12        -6.5610   -0.8440    0.9330 n         1 MOL     -0.174282
    141 C43        -6.6000    0.5290    1.3640 c3        1 MOL     -0.171212
    142 C44        -5.9150    1.4670    0.4100 c         1 MOL      0.358055
    143 O21        -6.4450    2.4920    0.0430 o         1 MOL     -0.507196
    144 C45        -6.0570    0.6200    2.8830 c3        1 MOL     -0.076357
    145 C46        -6.5240    1.8680    3.5240 c3        1 MOL     -0.029823
    146 C47        -6.1480    2.0780    5.0220 c3        1 MOL     -0.063498
    147 C48        -7.1610    1.2920    6.0010 c3        1 MOL      0.078296
    148 N13        -6.6940    1.3590    7.4330 n4        1 MOL     -0.408097
    149 H67        -6.1550   -1.5120    1.5770 hn        1 MOL      0.199808
    150 H68        -7.6690    0.7300    1.3880 h1        1 MOL      0.147132
    151 H69        -4.9720    0.5660    2.8530 hc        1 MOL      0.067665
    152 H70        -6.4530   -0.2550    3.3850 hc        1 MOL      0.067665
    153 H71        -7.5960    2.0190    3.3900 hc        1 MOL      0.049590
    154 H72        -6.0090    2.5970    2.9080 hc        1 MOL      0.049590
    155 H73        -6.1480    3.1150    5.3340 hc        1 MOL      0.053498
    156 H74        -5.1320    1.6980    5.1700 hc        1 MOL      0.053498
    157 H75        -7.1930    0.2930    5.5680 hx        1 MOL      0.064243
    158 H76        -8.1510    1.7350    5.8370 hx        1 MOL      0.064243
    159 H77        -5.7940    0.9050    7.5010 hn        1 MOL      0.325403
    160 H78        -6.6470    2.3400    7.6890 hn        1 MOL      0.325403
    161 H79        -7.2180    0.9480    8.1920 hn        1 MOL      0.325403
    162 N14        -4.8070    1.0440   -0.2350 n         1 MOL      0.216948
    163 C49        -4.0500    1.8540   -1.1020 c3        1 MOL     -0.141762
    164 C50        -4.6200    1.8430   -2.4820 c         1 MOL      0.435376
    165 O22        -4.8050    2.9140   -3.1060 o         1 MOL     -0.548851
    166 C51        -2.6390    1.2900   -1.0370 c3        1 MOL      0.086136
    167 C52        -1.9690    1.5380    0.3040 c3        1 MOL     -0.106147
    168 C53        -0.6960    0.7130    0.4280 c         1 MOL      0.743297
    169 O23        -0.6900   -0.4630    0.8800 o         1 MOL     -0.711626
    170 O24         0.3970    1.1860   -0.0430 o         1 MOL     -0.711626
    171 H80        -4.4650    0.1790    0.1460 hn        1 MOL     -0.044044
    172 H81        -3.9460    2.8810   -0.7490 h1        1 MOL      0.047833
    173 H82        -1.9700    1.7510   -1.7560 hc        1 MOL     -0.017232
    174 H83        -2.6720    0.2150   -1.2010 hc        1 MOL     -0.017232
    175 H84        -2.6550    1.2000    1.0830 hc        1 MOL      0.009623
    176 H85        -1.8390    2.6200    0.3920 hc        1 MOL      0.009623
    177 N15        -4.9120    0.6480   -3.0080 n         1 MOL     -0.084311
    178 C54        -5.5670    0.5580   -4.3150 c3        1 MOL     -0.274578
    179 H86        -6.2590    1.3920   -4.4330 h1        1 MOL      0.108307
    180 H87        -4.8140    0.5970   -5.1030 h1        1 MOL      0.108307
    181 H88        -6.1160   -0.3810   -4.3830 h1        1 MOL      0.108307
    182 H89        -4.7180   -0.1820   -2.4700 hn        1 MOL      0.128899
    183 Ca1         1.9510   -0.5050    1.3120 Ca        1 MOL      1.796748
    184 O25         0.2630   -0.2510    3.7310 oh        1 MOL     -0.892494
    185 H90         0.0390   -0.7190    4.5340 ho        1 MOL      0.404615
    186 H91         0.5940    0.5910    4.0350 ho        1 MOL      0.404615
    187 O26         1.6700   -2.9940    2.3780 oh        1 MOL     -0.892494
    188 H92         0.8710   -3.3570    2.7530 ho        1 MOL      0.404615
    189 H93         2.1510   -3.7540    2.0550 ho        1 MOL      0.404615
@<TRIPOS>BOND
     1    1    2 1   
     2    1    4 1   
     3    1    5 1   
     4    1    6 1   
     5    2    3 2   
     6    2    7 1   
     7    7    8 1   
     8    7   15 1   
     9    8    9 1   
    10    8   11 1   
    11    8   16 1   
    12    9   10 2   
    13    9   19 1   
    14   11   12 1   
    15   11   17 1   
    16   11   18 1   
    17   12   13 1   
    18   12   14 1   
    19   19   20 1   
    20   19   28 1   
    21   20   21 1   
    22   20   23 1   
    23   20   29 1   
    24   21   22 2   
    25   21   41 1   
    26   23   24 1   
    27   23   30 1   
    28   23   31 1   
    29   24   25 1   
    30   24   32 1   
    31   24   33 1   
    32   25   26 1   
    33   25   34 1   
    34   25   35 1   
    35   26   27 1   
    36   26   36 1   
    37   26   37 1   
    38   27   38 1   
    39   27   39 1   
    40   27   40 1   
    41   41   42 1   
    42   41   49 1   
    43   42   43 1   
    44   42   45 1   
    45   42   50 1   
    46   43   44 2   
    47   43   53 1   
    48   45   46 1   
    49   45   51 1   
    50   45   52 1   
    51   46   47 1   
    52   46   48 1   
    53   53   54 1   
    54   53   57 1   
    55   54   55 1   
    56   54   58 1   
    57   54   59 1   
    58   55   56 2   
    59   55   60 1   
    60   60   61 1   
    61   60   68 1   
    62   61   62 1   
    63   61   64 1   
    64   61   69 1   
    65   62   63 2   
    66   62   72 1   
    67   64   65 1   
    68   64   70 1   
    69   64   71 1   
    70   65   66 1   
    71   65   67 1   
    72   72   73 1   
    73   72   76 1   
    74   73   74 1   
    75   73   77 1   
    76   73   78 1   
    77   74   75 2   
    78   74   79 1   
    79   79   80 1   
    80   79   86 1   
    81   80   81 1   
    82   80   83 1   
    83   80   87 1   
    84   81   82 2   
    85   81   93 1   
    86   83   84 1   
    87   83   85 1   
    88   83   88 1   
    89   84   90 1   
    90   84   91 1   
    91   84   92 1   
    92   85   89 1   
    93   93   94 1   
    94   93  101 1   
    95   94   95 1   
    96   94   97 1   
    97   94  102 1   
    98   95   96 2   
    99   95  112 1   
   100   97   98 1   
   101   97   99 1   
   102   97  103 1   
   103   98  100 1   
   104   98  104 1   
   105   98  105 1   
   106   99  106 1   
   107   99  107 1   
   108   99  108 1   
   109  100  109 1   
   110  100  110 1   
   111  100  111 1   
   112  112  113 1   
   113  112  119 1   
   114  113  114 1   
   115  113  116 1   
   116  113  120 1   
   117  114  115 2   
   118  114  126 1   
   119  116  117 1   
   120  116  118 1   
   121  116  121 1   
   122  117  123 1   
   123  117  124 1   
   124  117  125 1   
   125  118  122 1   
   126  126  127 1   
   127  126  133 1   
   128  127  128 1   
   129  127  130 1   
   130  127  134 1   
   131  128  129 2   
   132  128  140 1   
   133  130  131 1   
   134  130  132 1   
   135  130  135 1   
   136  131  137 1   
   137  131  138 1   
   138  131  139 1   
   139  132  136 1   
   140  140  141 1   
   141  140  149 1   
   142  141  142 1   
   143  141  144 1   
   144  141  150 1   
   145  142  143 2   
   146  142  162 1   
   147  144  145 1   
   148  144  151 1   
   149  144  152 1   
   150  145  146 1   
   151  145  153 1   
   152  145  154 1   
   153  146  147 1   
   154  146  155 1   
   155  146  156 1   
   156  147  148 1   
   157  147  157 1   
   158  147  158 1   
   159  148  159 1   
   160  148  160 1   
   161  148  161 1   
   162  162  163 1   
   163  162  171 1   
   164  163  164 1   
   165  163  166 1   
   166  163  172 1   
   167  164  165 2   
   168  164  177 1   
   169  166  167 1   
   170  166  173 1   
   171  166  174 1   
   172  167  168 1   
   173  167  175 1   
   174  167  176 1   
   175  168  169 1   
   176  168  170 1   
   177  177  178 1   
   178  177  182 1   
   179  178  179 1   
   180  178  180 1   
   181  178  181 1   
   182  184  185 1   
   183  184  186 1   
   184  187  188 1   
   185  187  189 1   
@<TRIPOS>SUBSTRUCTURE
     1 MOL         1 TEMP              0 ****  ****    0 ROOT
