@<TRIPOS>MOLECULE
MOL
  183   181     1     0     0
SMALL
resp


@<TRIPOS>ATOM
      1 C1          0.8720   -3.1560    5.9930 c3        1 MOL     -0.266841
      2 C2          1.0860   -2.9250    4.4710 c         1 MOL      0.703895
      3 O1          0.2920   -3.2420    3.5660 o         1 MOL     -0.583608
      4 H1          0.8340   -4.2260    6.1950 hc        1 MOL      0.063567
      5 H2          1.6970   -2.7110    6.5490 hc        1 MOL      0.063567
      6 H3         -0.0670   -2.6960    6.3020 hc        1 MOL      0.063567
      7 N1          2.2860   -2.4000    4.1460 n         1 MOL     -0.698556
      8 C3          2.8080   -2.2600    2.7830 c3        1 MOL      0.223116
      9 C4          3.2180   -3.5860    2.2060 c         1 MOL      0.632746
     10 O2          4.1520   -4.1700    2.7070 o         1 MOL     -0.622812
     11 C5          3.9070   -1.2370    2.7600 c3        1 MOL     -0.308338
     12 C6          4.5180   -0.9100    1.3520 c         1 MOL      0.606913
     13 O3          4.0410   -1.3310    0.2790 o         1 MOL     -0.601517
     14 O4          5.5050   -0.1660    1.2560 o         1 MOL     -0.601517
     15 H4          2.8660   -2.0950    4.9130 hn        1 MOL      0.340645
     16 H5          2.0110   -1.7510    2.2400 h1        1 MOL      0.040725
     17 H6          4.6690   -1.5430    3.4820 hc        1 MOL      0.082331
     18 H7          3.6010   -0.2920    3.1940 hc        1 MOL      0.082331
     19 N2          2.5980   -3.9080    1.0730 n         1 MOL     -0.081225
     20 C7          2.7490   -5.2090    0.4120 c3        1 MOL     -0.131940
     21 C8          3.1310   -5.0910   -1.0910 c         1 MOL      0.416556
     22 O5          2.8870   -6.0060   -1.8810 o         1 MOL     -0.532714
     23 C9          1.4960   -6.0900    0.6840 c3        1 MOL      0.343744
     24 C10         0.1820   -5.4390    0.1860 c3        1 MOL     -0.068733
     25 C11         1.4350   -6.5690    2.1680 c3        1 MOL     -0.272196
     26 C12        -1.1630   -6.1920    0.2850 c3        1 MOL     -0.284919
     27 H8          1.9400   -3.2400    0.7130 hn        1 MOL      0.132473
     28 H9          3.5370   -5.6860    1.0020 h1        1 MOL      0.064416
     29 H10         1.6520   -7.0080    0.1190 hc        1 MOL     -0.081609
     30 H11         0.2860   -5.2340   -0.8800 hc        1 MOL      0.082429
     31 H12         0.1350   -4.4850    0.7140 hc        1 MOL      0.082429
     32 H13         1.4700   -5.7110    2.8310 hc        1 MOL      0.041873
     33 H14         0.5270   -7.1690    2.2880 hc        1 MOL      0.041873
     34 H15         2.3180   -7.1820    2.3550 hc        1 MOL      0.041873
     35 H16        -1.9490   -5.4480    0.1720 hc        1 MOL      0.069271
     36 H17        -1.3150   -6.9670   -0.4660 hc        1 MOL      0.069271
     37 H18        -1.2820   -6.5390    1.3090 hc        1 MOL      0.069271
     38 N3          3.7390   -3.9390   -1.4400 n         1 MOL     -0.131197
     39 C13         4.7620   -3.7820   -2.5010 c3        1 MOL      0.036333
     40 C14         6.1360   -3.3170   -2.0870 c         1 MOL      0.449110
     41 O6          7.1410   -3.9490   -2.5940 o         1 MOL     -0.578790
     42 C15         4.2020   -2.9920   -3.7460 c3        1 MOL     -0.440094
     43 C16         3.7050   -1.6340   -3.3030 c         1 MOL      0.916273
     44 O7          2.5100   -1.2800   -3.3060 o         1 MOL     -0.809226
     45 O8          4.5270   -0.7570   -2.9140 o         1 MOL     -0.809226
     46 H19         3.8170   -3.2650   -0.6890 hn        1 MOL     -0.051902
     47 H20         4.8230   -4.7930   -2.9170 h1        1 MOL      0.085953
     48 H21         3.3720   -3.5710   -4.1520 hc        1 MOL      0.118447
     49 H22         5.1020   -2.9240   -4.3720 hc        1 MOL      0.118447
     50 N4          6.3100   -2.4230   -1.0930 n         1 MOL     -0.287019
     51 C17         7.6240   -1.9190   -0.7510 c3        1 MOL      0.081604
     52 C18         8.0150   -0.4700   -1.0570 c         1 MOL      0.458527
     53 O9          9.2040   -0.1100   -1.0650 o         1 MOL     -0.600258
     54 H23         5.4840   -2.1420   -0.5780 hn        1 MOL      0.277651
     55 H24         8.3870   -2.6470   -1.0240 h1        1 MOL      0.031595
     56 H25         7.6620   -2.0300    0.3330 h1        1 MOL      0.031595
     57 N5          7.0190    0.4340   -1.2340 n         1 MOL     -0.175582
     58 C19         7.3400    1.8290   -1.6020 c3        1 MOL      0.014797
     59 C20         7.4150    2.8160   -0.3850 c         1 MOL      0.404017
     60 O10         7.8570    3.9740   -0.4700 o         1 MOL     -0.570348
     61 C21         6.3310    2.4200   -2.6560 c3        1 MOL     -0.409701
     62 C22         4.9120    2.2400   -2.1860 c         1 MOL      0.860275
     63 O11         4.5950    1.8970   -1.0250 o         1 MOL     -0.728183
     64 O12         4.0390    2.4340   -3.0490 o         1 MOL     -0.728183
     65 H26         6.0630    0.1830   -1.0350 hn        1 MOL      0.166786
     66 H27         8.3000    1.8200   -2.1080 h1        1 MOL      0.102881
     67 H28         6.5280    1.9000   -3.5860 hc        1 MOL      0.121142
     68 H29         6.5530    3.4620   -2.8610 hc        1 MOL      0.121142
     69 N6          6.9190    2.3630    0.7610 n         1 MOL     -0.210285
     70 C23         6.7280    3.2690    1.8990 c3        1 MOL     -0.043640
     71 C24         5.4180    3.9440    2.0450 c         1 MOL      0.503844
     72 O13         5.2040    4.7270    2.9130 o         1 MOL     -0.586884
     73 H30         6.4220    1.4840    0.6980 hn        1 MOL      0.120208
     74 H31         7.4060    4.1200    1.8490 h1        1 MOL      0.067519
     75 H32         7.0520    2.8050    2.8290 h1        1 MOL      0.067519
     76 N7          4.4360    3.5310    1.2090 n         1 MOL     -0.229869
     77 C25         2.9920    3.9330    1.4340 c3        1 MOL     -0.029977
     78 C26         2.0350    2.7610    1.4590 c         1 MOL      0.702881
     79 O14         2.3620    1.7040    0.9850 o         1 MOL     -0.639836
     80 C27         2.5110    5.0650    0.5680 c3        1 MOL      0.003656
     81 C28         3.3250    6.3360    0.6530 c3        1 MOL     -0.105530
     82 C29         2.7650    7.4780   -0.2310 c         1 MOL      0.629504
     83 N8          2.9920    7.5060   -1.4970 n         1 MOL     -0.789081
     84 O15         2.2480    8.4170    0.3070 o         1 MOL     -0.592541
     85 H33         4.5780    2.7250    0.6180 hn        1 MOL      0.227740
     86 H34         2.8460    4.3420    2.4370 h1        1 MOL      0.049301
     87 H35         1.4570    5.2650    0.7820 hc        1 MOL      0.007948
     88 H36         2.6760    4.6490   -0.4280 hc        1 MOL      0.007948
     89 H37         4.3290    6.0380    0.3600 hc        1 MOL      0.048879
     90 H38         3.3880    6.7620    1.6450 hc        1 MOL      0.048879
     91 H39         3.5090    6.7830   -1.9720 hn        1 MOL      0.364246
     92 H40         2.7080    8.3630   -1.9510 hn        1 MOL      0.364246
     93 N9          0.8910    3.0890    2.0400 n         1 MOL     -0.602641
     94 C30        -0.3140    2.1960    2.1190 c3        1 MOL     -0.095045
     95 C31        -1.3880    2.9210    1.3810 c         1 MOL      0.551495
     96 O16        -1.9400    3.9380    1.8050 o         1 MOL     -0.556369
     97 C32        -0.8530    1.8750    3.5590 c3        1 MOL      0.163637
     98 C33        -2.3820    1.4440    3.5760 c3        1 MOL     -0.299689
     99 C34        -0.0600    0.6490    3.9640 c3        1 MOL     -0.299689
    100 H41         0.7000    4.0340    2.3480 hn        1 MOL      0.356697
    101 H42        -0.2120    1.2080    1.6840 h1        1 MOL      0.221633
    102 H43        -0.5630    2.6300    4.2840 hc        1 MOL      0.029217
    103 H44        -2.7120    1.3210    4.6000 hc        1 MOL      0.067797
    104 H45        -2.9940    2.1840    3.0640 hc        1 MOL      0.067797
    105 H46        -2.5610    0.5190    3.0190 hc        1 MOL      0.067797
    106 H47        -0.1080   -0.2240    3.3100 hc        1 MOL      0.067797
    107 H48         0.9830    0.9360    4.0910 hc        1 MOL      0.067797
    108 H49        -0.3650    0.4590    4.9870 hc        1 MOL      0.067797
    109 N10        -1.5630    2.4850    0.0970 n         1 MOL     -0.490482
    110 C35        -2.7450    2.8550   -0.6980 c3        1 MOL      0.169699
    111 C36        -3.9960    2.0500   -0.2490 c         1 MOL      0.257977
    112 O17        -3.9690    1.0640    0.4720 o         1 MOL     -0.228787
    113 C37        -2.4680    2.7160   -2.2480 c3        1 MOL     -0.416181
    114 C38        -2.9690    1.4220   -2.8430 c         1 MOL      0.647194
    115 N11        -2.1540    0.3870   -2.9290 n         1 MOL     -0.728639
    116 O18        -4.1200    1.3820   -3.2050 o         1 MOL     -0.555358
    117 H50        -1.0250    1.6850   -0.2210 hn        1 MOL      0.304522
    118 H51        -3.0530    3.9010   -0.6010 h1        1 MOL      0.077596
    119 H52        -1.3910    2.7640   -2.4240 hc        1 MOL      0.136657
    120 H53        -2.8010    3.5650   -2.8410 hc        1 MOL      0.136657
    121 H54        -1.2960    0.4440   -2.3920 hn        1 MOL      0.370124
    122 H55        -2.4470   -0.4640   -3.3810 hn        1 MOL      0.370124
    123 N12        -5.2280    2.4100   -0.6850 n         1 MOL     -0.353589
    124 C39        -6.4740    1.8660   -0.1500 c3        1 MOL      0.033711
    125 C40        -6.7310    0.3890   -0.4810 c         1 MOL      0.844099
    126 O19        -7.1180   -0.4330    0.3780 o         1 MOL     -0.606449
    127 C41        -7.6770    2.7530   -0.4860 c3        1 MOL     -0.096012
    128 C42        -9.0630    2.3640    0.1040 ca        1 MOL     -0.121997
    129 C43        -9.1960    2.5170    1.4750 ca        1 MOL     -0.047749
    130 C44       -10.0640    1.6970   -0.6340 ca        1 MOL     -0.047749
    131 C45       -10.2850    1.8720    2.1840 ca        1 MOL     -0.375559
    132 C46       -11.1510    1.1610    0.0780 ca        1 MOL     -0.375559
    133 C47       -11.2100    1.1470    1.4280 ca        1 MOL      0.520724
    134 O20       -12.3810    0.5990    1.9310 oh        1 MOL     -0.602852
    135 H56        -5.3250    3.2350   -1.2720 hn        1 MOL      0.235126
    136 H57        -6.3420    1.8120    0.9310 h1        1 MOL      0.051152
    137 H58        -7.7110    2.9070   -1.5610 hc        1 MOL      0.054533
    138 H59        -7.4100    3.7210   -0.0590 hc        1 MOL      0.054533
    139 H60        -8.4830    3.1100    2.0270 ha        1 MOL      0.124468
    140 H61        -9.9350    1.4980   -1.6860 ha        1 MOL      0.124468
    141 H62       -10.4770    1.9780    3.2420 ha        1 MOL      0.164008
    142 H63       -11.9310    0.6800   -0.5040 ha        1 MOL      0.164008
    143 H64       -12.9000    0.2210    1.2270 ho        1 MOL      0.390277
    144 N13        -6.0970   -0.0670   -1.5730 n         1 MOL     -0.681326
    145 C48        -5.9890   -1.5020   -1.9610 c3        1 MOL      0.002501
    146 C49        -4.9870   -2.3230   -1.0960 c         1 MOL      0.306002
    147 O21        -4.7610   -3.5580   -1.3260 o         1 MOL     -0.512769
    148 C50        -5.6260   -1.6230   -3.4170 c3        1 MOL     -0.020677
    149 C51        -6.6080   -0.8630   -4.3480 c3        1 MOL     -0.086528
    150 C52        -8.0710   -1.2340   -4.1480 c         1 MOL      0.732115
    151 O22        -8.3660   -2.3920   -3.8210 o         1 MOL     -0.742107
    152 O23        -8.9340   -0.3610   -4.3780 o         1 MOL     -0.742107
    153 H65        -5.5700    0.5620   -2.1690 hn        1 MOL      0.347920
    154 H66        -6.9530   -2.0010   -1.8420 h1        1 MOL      0.151293
    155 H67        -5.5050   -2.6750   -3.6900 hc        1 MOL      0.023561
    156 H68        -4.6500   -1.1320   -3.4790 hc        1 MOL      0.023561
    157 H69        -6.3800   -1.0810   -5.3890 hc        1 MOL     -0.017367
    158 H70        -6.5450    0.2210   -4.2440 hc        1 MOL     -0.017367
    159 N14        -4.2420   -1.6730   -0.1600 n         1 MOL     -0.047214
    160 C53        -3.4390   -2.4010    0.8400 c3        1 MOL     -0.032556
    161 C54        -4.1080   -2.3290    2.2520 c         1 MOL      0.369402
    162 O24        -3.9410   -3.2250    3.1210 o         1 MOL     -0.562552
    163 C55        -2.0570   -1.8830    0.9210 c3        1 MOL      0.149774
    164 C56        -1.3390   -1.8780   -0.4020 c3        1 MOL     -0.099792
    165 C57        -0.0140   -1.1170   -0.3370 c         1 MOL      0.825809
    166 O25         1.0120   -1.7010   -0.1240 o         1 MOL     -0.816937
    167 O26         0.0370    0.1010   -0.6810 o         1 MOL     -0.816937
    168 H71        -4.0320   -0.6940   -0.2870 hn        1 MOL      0.201650
    169 H72        -3.4320   -3.4670    0.5890 h1        1 MOL      0.074459
    170 H73        -1.5160   -2.3790    1.7300 hc        1 MOL     -0.008539
    171 H74        -2.1990   -0.8260    1.1580 hc        1 MOL     -0.008539
    172 H75        -1.9520   -1.4220   -1.1680 hc        1 MOL     -0.021952
    173 H76        -1.1540   -2.9060   -0.7010 hc        1 MOL     -0.021952
    174 N15        -4.8930   -1.2970    2.4220 n         1 MOL      0.060535
    175 C58        -5.5630   -1.0330    3.6070 c3        1 MOL     -0.216417
    176 H77        -5.9840   -1.9590    4.0000 h1        1 MOL      0.072046
    177 H78        -4.8670   -0.6140    4.3330 h1        1 MOL      0.072046
    178 H79        -6.3660   -0.3200    3.4190 h1        1 MOL      0.072046
    179 H80        -4.9650   -0.6990    1.6010 hn        1 MOL     -0.054295
    180 Ca1         2.6330    0.1680   -1.1290 Ca        1 MOL      1.766830
    181 O27         1.4680    1.8210   -2.8430 oh        1 MOL     -0.900262
    182 H81         2.2650    2.1840   -3.2240 ho        1 MOL      0.415009
    183 H82         0.8540    1.7760   -3.5710 ho        1 MOL      0.415009
@<TRIPOS>BOND
     1    1    2 1   
     2    1    4 1   
     3    1    5 1   
     4    1    6 1   
     5    2    3 2   
     6    2    7 1   
     7    7    8 1   
     8    7   15 1   
     9    8    9 1   
    10    8   11 1   
    11    8   16 1   
    12    9   10 2   
    13    9   19 1   
    14   11   12 1   
    15   11   17 1   
    16   11   18 1   
    17   12   13 1   
    18   12   14 1   
    19   19   20 1   
    20   19   27 1   
    21   20   21 1   
    22   20   23 1   
    23   20   28 1   
    24   21   22 2   
    25   21   38 1   
    26   23   24 1   
    27   23   25 1   
    28   23   29 1   
    29   24   26 1   
    30   24   30 1   
    31   24   31 1   
    32   25   32 1   
    33   25   33 1   
    34   25   34 1   
    35   26   35 1   
    36   26   36 1   
    37   26   37 1   
    38   38   39 1   
    39   38   46 1   
    40   39   40 1   
    41   39   42 1   
    42   39   47 1   
    43   40   41 2   
    44   40   50 1   
    45   42   43 1   
    46   42   48 1   
    47   42   49 1   
    48   43   44 1   
    49   43   45 1   
    50   50   51 1   
    51   50   54 1   
    52   51   52 1   
    53   51   55 1   
    54   51   56 1   
    55   52   53 2   
    56   52   57 1   
    57   57   58 1   
    58   57   65 1   
    59   58   59 1   
    60   58   61 1   
    61   58   66 1   
    62   59   60 2   
    63   59   69 1   
    64   61   62 1   
    65   61   67 1   
    66   61   68 1   
    67   62   63 1   
    68   62   64 1   
    69   69   70 1   
    70   69   73 1   
    71   70   71 1   
    72   70   74 1   
    73   70   75 1   
    74   71   72 2   
    75   71   76 1   
    76   76   77 1   
    77   76   85 1   
    78   77   78 1   
    79   77   80 1   
    80   77   86 1   
    81   78   79 2   
    82   78   93 1   
    83   80   81 1   
    84   80   87 1   
    85   80   88 1   
    86   81   82 1   
    87   81   89 1   
    88   81   90 1   
    89   82   83 1   
    90   82   84 2   
    91   83   91 1   
    92   83   92 1   
    93   93   94 1   
    94   93  100 1   
    95   94   95 1   
    96   94   97 1   
    97   94  101 1   
    98   95   96 2   
    99   95  109 1   
   100   97   98 1   
   101   97   99 1   
   102   97  102 1   
   103   98  103 1   
   104   98  104 1   
   105   98  105 1   
   106   99  106 1   
   107   99  107 1   
   108   99  108 1   
   109  109  110 1   
   110  109  117 1   
   111  110  111 1   
   112  110  113 1   
   113  110  118 1   
   114  111  112 2   
   115  111  123 1   
   116  113  114 1   
   117  113  119 1   
   118  113  120 1   
   119  114  115 1   
   120  114  116 2   
   121  115  121 1   
   122  115  122 1   
   123  123  124 1   
   124  123  135 1   
   125  124  125 1   
   126  124  127 1   
   127  124  136 1   
   128  125  126 2   
   129  125  144 1   
   130  127  128 1   
   131  127  137 1   
   132  127  138 1   
   133  128  129 ar  
   134  128  130 ar  
   135  129  131 ar  
   136  129  139 1   
   137  130  132 ar  
   138  130  140 1   
   139  131  133 ar  
   140  131  141 1   
   141  132  133 ar  
   142  132  142 1   
   143  133  134 1   
   144  134  143 1   
   145  144  145 1   
   146  144  153 1   
   147  145  146 1   
   148  145  148 1   
   149  145  154 1   
   150  146  147 2   
   151  146  159 1   
   152  148  149 1   
   153  148  155 1   
   154  148  156 1   
   155  149  150 1   
   156  149  157 1   
   157  149  158 1   
   158  150  151 1   
   159  150  152 1   
   160  159  160 1   
   161  159  168 1   
   162  160  161 1   
   163  160  163 1   
   164  160  169 1   
   165  161  162 2   
   166  161  174 1   
   167  163  164 1   
   168  163  170 1   
   169  163  171 1   
   170  164  165 1   
   171  164  172 1   
   172  164  173 1   
   173  165  166 1   
   174  165  167 1   
   175  174  175 1   
   176  174  179 1   
   177  175  176 1   
   178  175  177 1   
   179  175  178 1   
   180  181  182 1   
   181  181  183 1   
@<TRIPOS>SUBSTRUCTURE
     1 MOL         1 TEMP              0 ****  ****    0 ROOT
