@<TRIPOS>MOLECULE
MOL
  183   181     1     0     0
SMALL
resp


@<TRIPOS>ATOM
      1 C1         -0.6320    1.5710    6.2460 c3        1 MOL     -0.279337
      2 C2         -0.9460    1.4520    4.7350 c         1 MOL      0.748259
      3 O1         -0.1360    1.6390    3.8460 o         1 MOL     -0.591561
      4 H1         -0.6610    2.6200    6.5410 hc        1 MOL      0.063554
      5 H2         -1.3740    1.0120    6.8170 hc        1 MOL      0.063554
      6 H3          0.3610    1.1660    6.4450 hc        1 MOL      0.063554
      7 N1         -2.2240    1.1900    4.4310 n         1 MOL     -0.636927
      8 C3         -2.7950    1.2790    3.1130 c3        1 MOL      0.318032
      9 C4         -2.9930    2.7490    2.7160 c         1 MOL      0.480437
     10 O2         -3.6840    3.4300    3.4370 o         1 MOL     -0.578013
     11 C5         -4.1540    0.4380    3.1370 c3        1 MOL     -0.406219
     12 C6         -4.6900    0.2730    1.6920 c         1 MOL      0.807564
     13 O3         -5.8840   -0.1440    1.5070 o         1 MOL     -0.663535
     14 O4         -4.0640    0.6990    0.6640 o         1 MOL     -0.663535
     15 H4         -2.8390    0.9830    5.2020 hn        1 MOL      0.305940
     16 H5         -2.0320    0.8050    2.5090 h1        1 MOL     -0.003876
     17 H6         -4.9410    0.9340    3.7020 hc        1 MOL      0.098292
     18 H7         -3.9500   -0.5680    3.4860 hc        1 MOL      0.098292
     19 N2         -2.3250    3.1990    1.6800 n         1 MOL     -0.244867
     20 C7         -2.5040    4.6060    1.3710 c3        1 MOL     -0.076944
     21 C8         -3.7980    4.7960    0.5840 c         1 MOL      0.624688
     22 O5         -4.5580    5.7410    0.9200 o         1 MOL     -0.612168
     23 C9         -1.2480    5.0640    0.5180 c3        1 MOL      0.292295
     24 C10         0.0170    4.7680    1.3380 c3        1 MOL      0.089872
     25 C11        -1.2540    6.6230    0.2430 c3        1 MOL     -0.315020
     26 C12         1.2180    5.0930    0.4240 c3        1 MOL     -0.202702
     27 H8         -1.7250    2.5630    1.1920 hn        1 MOL      0.172640
     28 H9         -2.4890    5.2000    2.2910 h1        1 MOL      0.061346
     29 H10        -1.2700    4.4480   -0.3830 hc        1 MOL      0.010842
     30 H11         0.1040    3.7520    1.7250 hc        1 MOL     -0.028790
     31 H12        -0.0360    5.4090    2.2150 hc        1 MOL     -0.028790
     32 H13        -2.2840    6.9600    0.3450 hc        1 MOL      0.051781
     33 H14        -0.7560    7.0610    1.1020 hc        1 MOL      0.051781
     34 H15        -0.7620    6.8190   -0.7130 hc        1 MOL      0.051781
     35 H16         1.1050    4.7180   -0.5970 hc        1 MOL      0.052281
     36 H17         1.3000    6.1700    0.3730 hc        1 MOL      0.052281
     37 H18         2.1370    4.6940    0.8740 hc        1 MOL      0.052281
     38 N3         -4.1460    3.8050   -0.2420 n         1 MOL     -0.457321
     39 C13        -5.1690    4.0010   -1.3440 c3        1 MOL     -0.048299
     40 C14        -6.3240    2.9460   -1.3110 c         1 MOL      0.444402
     41 O6         -6.9930    2.7940   -2.2940 o         1 MOL     -0.494837
     42 C15        -4.4560    4.1560   -2.7030 c3        1 MOL     -0.070991
     43 C16        -3.3690    3.1820   -2.9680 c         1 MOL      0.697673
     44 O7         -3.4630    1.9620   -2.6180 o         1 MOL     -0.703880
     45 O8         -2.2930    3.6770   -3.3960 o         1 MOL     -0.703880
     46 H19        -3.5420    2.9890   -0.2800 hn        1 MOL      0.228567
     47 H20        -5.7170    4.9200   -1.1520 h1        1 MOL      0.113687
     48 H21        -4.1540    5.1680   -2.9690 hc        1 MOL      0.014114
     49 H22        -5.2080    3.9920   -3.4810 hc        1 MOL      0.014114
     50 N4         -6.6520    2.3530   -0.2020 n         1 MOL     -0.317217
     51 C17        -8.0290    1.8240   -0.0250 c3        1 MOL     -0.074075
     52 C18        -8.3440    0.5400   -0.7700 c         1 MOL      0.440074
     53 O9         -9.4560    0.3470   -1.2730 o         1 MOL     -0.594467
     54 H23        -5.9530    2.2110    0.5060 hn        1 MOL      0.259219
     55 H24        -8.7320    2.6130   -0.2800 h1        1 MOL      0.080646
     56 H25        -8.2750    1.6760    1.0290 h1        1 MOL      0.080646
     57 N5         -7.3540   -0.3490   -0.9390 n         1 MOL     -0.042118
     58 C19        -7.5970   -1.7260   -1.4740 c3        1 MOL      0.056066
     59 C20        -7.3520   -2.8910   -0.4730 c         1 MOL      0.372061
     60 O10        -7.7180   -4.0140   -0.7930 o         1 MOL     -0.553301
     61 C21        -6.7530   -1.9040   -2.7210 c3        1 MOL     -0.206838
     62 C22        -5.2760   -1.4930   -2.5110 c         1 MOL      0.729933
     63 O11        -4.5760   -0.8690   -3.3270 o         1 MOL     -0.754433
     64 O12        -4.7230   -1.8230   -1.4830 o         1 MOL     -0.754433
     65 H26        -6.5760   -0.1950   -0.3100 hn        1 MOL     -0.012901
     66 H27        -8.6640   -1.8740   -1.6700 h1        1 MOL      0.072642
     67 H28        -7.1850   -1.2910   -3.5110 hc        1 MOL      0.050623
     68 H29        -6.7850   -2.9500   -3.0510 hc        1 MOL      0.050623
     69 N6         -6.7990   -2.5930    0.7150 n         1 MOL     -0.192370
     70 C23        -6.6330   -3.5090    1.8190 c3        1 MOL     -0.024119
     71 C24        -5.2480   -4.2180    1.8980 c         1 MOL      0.463110
     72 O13        -5.0800   -5.1320    2.6780 o         1 MOL     -0.584960
     73 H30        -6.5300   -1.6310    0.8160 hn        1 MOL      0.190046
     74 H31        -7.4240   -4.2590    1.9040 h1        1 MOL      0.048143
     75 H32        -6.7610   -2.8290    2.6630 h1        1 MOL      0.048143
     76 N7         -4.2620   -3.7970    1.0860 n         1 MOL     -0.095068
     77 C25        -2.8930   -4.3140    0.9420 c3        1 MOL      0.030145
     78 C26        -1.8990   -3.1840    0.9540 c         1 MOL      0.458833
     79 O14        -2.2260   -1.9950    0.8290 o         1 MOL     -0.594538
     80 C27        -2.7610   -5.1920   -0.2890 c3        1 MOL      0.143719
     81 C28        -3.5520   -4.8000   -1.5370 c3        1 MOL     -0.202834
     82 C29        -2.8590   -3.8330   -2.5310 c         1 MOL      0.625115
     83 N8         -2.9550   -4.1040   -3.7870 n         1 MOL     -0.682514
     84 O15        -2.2510   -2.8350   -2.1790 o         1 MOL     -0.455266
     85 H33        -4.4340   -2.9320    0.5780 hn        1 MOL      0.108447
     86 H34        -2.6600   -4.9390    1.7960 h1        1 MOL      0.042373
     87 H35        -2.9970   -6.2100   -0.0130 hc        1 MOL     -0.040065
     88 H36        -1.7290   -5.2750   -0.6290 hc        1 MOL     -0.040065
     89 H37        -4.5840   -4.5840   -1.2800 hc        1 MOL      0.047879
     90 H38        -3.4950   -5.7060   -2.1430 hc        1 MOL      0.047879
     91 H39        -3.2780   -5.0000   -4.1340 hn        1 MOL      0.330441
     92 H40        -2.4530   -3.5050   -4.4130 hn        1 MOL      0.330441
     93 N9         -0.6890   -3.5200    1.3480 n         1 MOL     -0.470692
     94 C30         0.5120   -2.6860    1.6630 c3        1 MOL      0.063239
     95 C31         1.5800   -3.1850    0.7350 c         1 MOL      0.356797
     96 O16         2.1030   -4.2580    0.9430 o         1 MOL     -0.559944
     97 C32         0.8400   -2.8110    3.1780 c3        1 MOL      0.145991
     98 C33         2.1180   -1.9660    3.5060 c3        1 MOL     -0.300842
     99 C34        -0.2690   -2.2070    3.9790 c3        1 MOL     -0.300842
    100 H41        -0.6800   -4.5100    1.5230 hn        1 MOL      0.274278
    101 H42         0.2930   -1.6470    1.4350 h1        1 MOL      0.198263
    102 H43         1.0560   -3.8400    3.4790 hc        1 MOL      0.009104
    103 H44         1.9090   -0.9460    3.1650 hc        1 MOL      0.063315
    104 H45         2.2810   -1.8880    4.5830 hc        1 MOL      0.063315
    105 H46         2.9800   -2.3060    2.9440 hc        1 MOL      0.063315
    106 H47        -0.4550   -1.1600    3.7390 hc        1 MOL      0.063315
    107 H48        -1.2430   -2.6920    3.9770 hc        1 MOL      0.063315
    108 H49        -0.1230   -2.3430    5.0600 hc        1 MOL      0.063315
    109 N10         1.9210   -2.3610   -0.2110 n         1 MOL     -0.118552
    110 C35         3.0810   -2.5890   -1.1100 c3        1 MOL      0.100121
    111 C36         4.4020   -2.0710   -0.4870 c         1 MOL      0.350608
    112 O17         4.3340   -1.5130    0.6260 o         1 MOL     -0.259567
    113 C37         2.8080   -1.9120   -2.4880 c3        1 MOL     -0.430545
    114 C38         1.7250   -2.6880   -3.2270 c         1 MOL      0.789701
    115 N11         0.4850   -2.5680   -2.8150 n         1 MOL     -0.818553
    116 O18         2.0490   -3.3530   -4.1990 o         1 MOL     -0.624192
    117 H50         1.3270   -1.5510   -0.2960 hn        1 MOL      0.248647
    118 H51         3.1050   -3.6530   -1.3390 h1        1 MOL      0.060790
    119 H52         3.7200   -1.9960   -3.0750 hc        1 MOL      0.102516
    120 H53         2.6140   -0.8530   -2.3950 hc        1 MOL      0.102516
    121 H54         0.2810   -1.9610   -2.0370 hn        1 MOL      0.316403
    122 H55        -0.2720   -3.1030   -3.2310 hn        1 MOL      0.316403
    123 N12         5.5790   -2.1980   -1.1070 n         1 MOL     -0.550179
    124 C39         6.8290   -1.8180   -0.4660 c3        1 MOL      0.301726
    125 C40         6.9900   -0.3820   -0.1760 c         1 MOL      0.597744
    126 O19         7.3320    0.0360    0.9060 o         1 MOL     -0.531014
    127 C41         8.0460   -2.3690   -1.2650 c3        1 MOL     -0.169273
    128 C42         9.4910   -2.1830   -0.7000 ca        1 MOL      0.117250
    129 C43         9.7820   -2.6710    0.6120 ca        1 MOL     -0.254991
    130 C44        10.4910   -1.5310   -1.4750 ca        1 MOL     -0.254991
    131 C45        10.9940   -2.2960    1.2110 ca        1 MOL     -0.173752
    132 C46        11.7080   -1.2000   -0.9060 ca        1 MOL     -0.173752
    133 C47        11.9410   -1.5370    0.4730 ca        1 MOL      0.257441
    134 O20        13.0820   -1.1400    1.1120 oh        1 MOL     -0.473229
    135 H56         5.6090   -2.5290   -2.0630 hn        1 MOL      0.315568
    136 H57         6.8560   -2.3760    0.4810 h1        1 MOL      0.021298
    137 H58         7.9690   -1.8830   -2.2380 hc        1 MOL      0.035783
    138 H59         7.8910   -3.4380   -1.4030 hc        1 MOL      0.035783
    139 H60         9.0080   -3.0980    1.2390 ha        1 MOL      0.166107
    140 H61        10.2980   -1.1380   -2.4640 ha        1 MOL      0.166107
    141 H62        11.1880   -2.5110    2.2530 ha        1 MOL      0.134403
    142 H63        12.5010   -0.7880   -1.5060 ha        1 MOL      0.134403
    143 H64        13.5550   -0.5930    0.4760 ho        1 MOL      0.351078
    144 N13         6.6350    0.5080   -1.1180 n         1 MOL     -0.510241
    145 C48         6.5280    1.9100   -0.8700 c3        1 MOL     -0.013403
    146 C49         5.4370    2.3250    0.1970 c         1 MOL      0.345749
    147 O21         5.5020    3.3900    0.8210 o         1 MOL     -0.486535
    148 C50         6.2290    2.6640   -2.0790 c3        1 MOL     -0.044894
    149 C51         7.4180    2.9700   -3.0370 c3        1 MOL      0.055840
    150 C52         7.1150    4.1200   -3.9620 c         1 MOL      0.684984
    151 O22         7.5530    5.2580   -3.6400 o         1 MOL     -0.739762
    152 O23         6.6180    3.8460   -5.0810 o         1 MOL     -0.739762
    153 H65         6.2300    0.1560   -1.9790 hn        1 MOL      0.314032
    154 H66         7.5010    2.1940   -0.4830 h1        1 MOL      0.127454
    155 H67         5.8030    3.6430   -1.8380 hc        1 MOL      0.016612
    156 H68         5.4960    2.0960   -2.6440 hc        1 MOL      0.016612
    157 H69         7.6880    2.0720   -3.5980 hc        1 MOL     -0.072906
    158 H70         8.2920    3.2650   -2.4610 hc        1 MOL     -0.072906
    159 N14         4.4640    1.4270    0.4450 n         1 MOL     -0.190585
    160 C53         3.4920    1.5800    1.5360 c3        1 MOL     -0.011289
    161 C54         4.1430    1.1110    2.8770 c         1 MOL      0.407330
    162 O24         4.0510    1.8310    3.8890 o         1 MOL     -0.559200
    163 C55         2.1170    0.9390    1.2320 c3        1 MOL      0.068265
    164 C56         1.5900    1.2600   -0.1440 c3        1 MOL      0.001167
    165 C57         0.1140    0.7500   -0.3230 c         1 MOL      0.775594
    166 O25        -0.9370    1.4640   -0.1620 o         1 MOL     -0.772086
    167 O26        -0.1150   -0.3850   -0.7570 o         1 MOL     -0.772086
    168 H71         4.6070    0.5220    0.0010 hn        1 MOL      0.198706
    169 H72         3.3750    2.6560    1.6120 h1        1 MOL      0.106209
    170 H73         1.5010    1.4290    1.9860 hc        1 MOL     -0.003861
    171 H74         2.3190   -0.1240    1.2660 hc        1 MOL     -0.003861
    172 H75         2.2440    0.8720   -0.9280 hc        1 MOL     -0.033860
    173 H76         1.5490    2.3520   -0.2020 hc        1 MOL     -0.033860
    174 N15         4.9530    0.0110    2.8910 n         1 MOL      0.102677
    175 C58         5.7850   -0.3800    4.0050 c3        1 MOL     -0.348500
    176 H77         5.7920    0.4160    4.7490 h1        1 MOL      0.104343
    177 H78         5.3890   -1.2910    4.4520 h1        1 MOL      0.104343
    178 H79         6.8010   -0.5590    3.6550 h1        1 MOL      0.104343
    179 H80         5.0470   -0.3980    1.9640 hn        1 MOL     -0.068080
    180 Ca1        -2.7280   -0.1250   -1.3040 Ca        1 MOL      1.759121
    181 O27        -1.6540   -0.1870   -3.8190 oh        1 MOL     -0.772291
    182 H81        -1.2190    0.4510   -4.3820 ho        1 MOL      0.386729
    183 H82        -1.6700   -0.9950   -4.3420 ho        1 MOL      0.386729
@<TRIPOS>BOND
     1    1    2 1   
     2    1    4 1   
     3    1    5 1   
     4    1    6 1   
     5    2    3 2   
     6    2    7 1   
     7    7    8 1   
     8    7   15 1   
     9    8    9 1   
    10    8   11 1   
    11    8   16 1   
    12    9   10 2   
    13    9   19 1   
    14   11   12 1   
    15   11   17 1   
    16   11   18 1   
    17   12   13 1   
    18   12   14 1   
    19   19   20 1   
    20   19   27 1   
    21   20   21 1   
    22   20   23 1   
    23   20   28 1   
    24   21   22 2   
    25   21   38 1   
    26   23   24 1   
    27   23   25 1   
    28   23   29 1   
    29   24   26 1   
    30   24   30 1   
    31   24   31 1   
    32   25   32 1   
    33   25   33 1   
    34   25   34 1   
    35   26   35 1   
    36   26   36 1   
    37   26   37 1   
    38   38   39 1   
    39   38   46 1   
    40   39   40 1   
    41   39   42 1   
    42   39   47 1   
    43   40   41 2   
    44   40   50 1   
    45   42   43 1   
    46   42   48 1   
    47   42   49 1   
    48   43   44 1   
    49   43   45 1   
    50   50   51 1   
    51   50   54 1   
    52   51   52 1   
    53   51   55 1   
    54   51   56 1   
    55   52   53 2   
    56   52   57 1   
    57   57   58 1   
    58   57   65 1   
    59   58   59 1   
    60   58   61 1   
    61   58   66 1   
    62   59   60 2   
    63   59   69 1   
    64   61   62 1   
    65   61   67 1   
    66   61   68 1   
    67   62   63 1   
    68   62   64 1   
    69   69   70 1   
    70   69   73 1   
    71   70   71 1   
    72   70   74 1   
    73   70   75 1   
    74   71   72 2   
    75   71   76 1   
    76   76   77 1   
    77   76   85 1   
    78   77   78 1   
    79   77   80 1   
    80   77   86 1   
    81   78   79 2   
    82   78   93 1   
    83   80   81 1   
    84   80   87 1   
    85   80   88 1   
    86   81   82 1   
    87   81   89 1   
    88   81   90 1   
    89   82   83 1   
    90   82   84 2   
    91   83   91 1   
    92   83   92 1   
    93   93   94 1   
    94   93  100 1   
    95   94   95 1   
    96   94   97 1   
    97   94  101 1   
    98   95   96 2   
    99   95  109 1   
   100   97   98 1   
   101   97   99 1   
   102   97  102 1   
   103   98  103 1   
   104   98  104 1   
   105   98  105 1   
   106   99  106 1   
   107   99  107 1   
   108   99  108 1   
   109  109  110 1   
   110  109  117 1   
   111  110  111 1   
   112  110  113 1   
   113  110  118 1   
   114  111  112 2   
   115  111  123 1   
   116  113  114 1   
   117  113  119 1   
   118  113  120 1   
   119  114  115 1   
   120  114  116 2   
   121  115  121 1   
   122  115  122 1   
   123  123  124 1   
   124  123  135 1   
   125  124  125 1   
   126  124  127 1   
   127  124  136 1   
   128  125  126 2   
   129  125  144 1   
   130  127  128 1   
   131  127  137 1   
   132  127  138 1   
   133  128  129 ar  
   134  128  130 ar  
   135  129  131 ar  
   136  129  139 1   
   137  130  132 ar  
   138  130  140 1   
   139  131  133 ar  
   140  131  141 1   
   141  132  133 ar  
   142  132  142 1   
   143  133  134 1   
   144  134  143 1   
   145  144  145 1   
   146  144  153 1   
   147  145  146 1   
   148  145  148 1   
   149  145  154 1   
   150  146  147 2   
   151  146  159 1   
   152  148  149 1   
   153  148  155 1   
   154  148  156 1   
   155  149  150 1   
   156  149  157 1   
   157  149  158 1   
   158  150  151 1   
   159  150  152 1   
   160  159  160 1   
   161  159  168 1   
   162  160  161 1   
   163  160  163 1   
   164  160  169 1   
   165  161  162 2   
   166  161  174 1   
   167  163  164 1   
   168  163  170 1   
   169  163  171 1   
   170  164  165 1   
   171  164  172 1   
   172  164  173 1   
   173  165  166 1   
   174  165  167 1   
   175  174  175 1   
   176  174  179 1   
   177  175  176 1   
   178  175  177 1   
   179  175  178 1   
   180  181  182 1   
   181  181  183 1   
@<TRIPOS>SUBSTRUCTURE
     1 MOL         1 TEMP              0 ****  ****    0 ROOT
