@<TRIPOS>MOLECULE
MOL
  189   185     1     0     0
SMALL
resp


@<TRIPOS>ATOM
      1 C1         -0.3510    2.8980    5.8070 c3        1 MOL     -0.398573
      2 C2         -0.5020    2.3460    4.3800 c         1 MOL      0.748630
      3 O1          0.4610    2.4000    3.6130 o         1 MOL     -0.605804
      4 H1          0.3770    2.2990    6.3530 hc        1 MOL      0.091608
      5 H2         -0.0090    3.9320    5.7630 hc        1 MOL      0.091608
      6 H3         -1.3130    2.8540    6.3180 hc        1 MOL      0.091608
      7 N1         -1.6070    1.6890    4.0870 n         1 MOL     -0.502962
      8 C3         -2.0140    1.4470    2.7070 c3        1 MOL     -0.028410
      9 C4         -2.4810    2.7560    2.0530 c         1 MOL      0.391637
     10 O2         -3.3790    3.3750    2.6080 o         1 MOL     -0.545906
     11 C5         -3.1420    0.3340    2.7220 c3        1 MOL     -0.093709
     12 C6         -3.7790    0.1790    1.3320 c         1 MOL      1.069284
     13 O3         -4.8980   -0.3060    1.2590 o         1 MOL     -0.815137
     14 O4         -3.1890    0.5390    0.3290 o         1 MOL     -0.815137
     15 H4         -2.2520    1.5950    4.8560 hn        1 MOL      0.329802
     16 H5         -1.2520    1.0260    2.0580 h1        1 MOL      0.028416
     17 H6         -3.9450    0.5620    3.4170 hc        1 MOL      0.004637
     18 H7         -2.7350   -0.5820    3.1390 hc        1 MOL      0.004637
     19 N2         -1.8280    3.2260    0.9720 n         1 MOL     -0.092207
     20 C7         -2.0780    4.6320    0.4660 c3        1 MOL      0.039840
     21 C8         -3.0200    4.8290   -0.6860 c         1 MOL      0.484365
     22 O5         -3.4040    5.9550   -0.9220 o         1 MOL     -0.582429
     23 C9         -0.7780    5.3780    0.2080 c3        1 MOL     -0.078920
     24 C10         0.2040    5.6150    1.4270 c3        1 MOL      0.071591
     25 C11        -0.3090    6.6760    2.4210 c3        1 MOL     -0.156089
     26 C12         0.8120    6.9120    3.4100 c3        1 MOL      0.113822
     27 N3          0.2250    7.3440    4.6060 n4        1 MOL     -0.451780
     28 H8         -1.2100    2.6670    0.4070 hn        1 MOL      0.167931
     29 H9         -2.5610    5.1750    1.2800 h1        1 MOL      0.029833
     30 H10        -0.9420    6.3040   -0.3470 hc        1 MOL      0.022834
     31 H11        -0.2020    4.8160   -0.5220 hc        1 MOL      0.022834
     32 H12         1.1880    6.0020    1.1530 hc        1 MOL     -0.002328
     33 H13         0.3090    4.6600    1.9440 hc        1 MOL     -0.002328
     34 H14        -1.2410    6.3300    2.8580 hc        1 MOL      0.065357
     35 H15        -0.5040    7.6010    1.8720 hc        1 MOL      0.065357
     36 H16         1.4840    7.6710    3.0070 hx        1 MOL      0.075754
     37 H17         1.4160    6.0240    3.5130 hx        1 MOL      0.075754
     38 H18         0.9860    7.5980    5.2140 hn        1 MOL      0.345543
     39 H19        -0.3110    8.2000    4.5830 hn        1 MOL      0.345543
     40 H20        -0.4390    6.6500    4.9430 hn        1 MOL      0.345543
     41 N4         -3.4120    3.7500   -1.3640 n         1 MOL     -0.293305
     42 C13        -4.3680    3.8130   -2.5390 c3        1 MOL      0.215433
     43 C14        -5.7590    3.0870   -2.2340 c         1 MOL      0.353131
     44 O6         -6.7040    3.2910   -2.9990 o         1 MOL     -0.523989
     45 C15        -3.7730    3.3630   -3.8980 c3        1 MOL     -0.366708
     46 C16        -2.9040    2.1070   -3.8730 c         1 MOL      0.751377
     47 O7         -2.7460    1.5510   -2.7400 o         1 MOL     -0.688619
     48 O8         -2.5290    1.5890   -4.9740 o         1 MOL     -0.688619
     49 H21        -2.9330    2.8850   -1.1670 hn        1 MOL      0.169034
     50 H22        -4.6500    4.8520   -2.7090 h1        1 MOL      0.044658
     51 H23        -3.1530    4.2230   -4.1730 hc        1 MOL      0.091510
     52 H24        -4.5740    3.1750   -4.6040 hc        1 MOL      0.091510
     53 N5         -5.7310    2.2450   -1.2180 n         1 MOL     -0.048472
     54 C17        -6.9280    1.8730   -0.5570 c3        1 MOL     -0.447656
     55 C18        -7.5650    0.4800   -0.8800 c         1 MOL      0.601307
     56 O9         -8.5950    0.1090   -0.3520 o         1 MOL     -0.555531
     57 H25        -4.8170    2.1430   -0.7980 hn        1 MOL      0.114784
     58 H26        -7.6640    2.5730   -0.9530 h1        1 MOL      0.168771
     59 H27        -6.7380    1.8980    0.5170 h1        1 MOL      0.168771
     60 N6         -6.6930   -0.3710   -1.5330 n         1 MOL     -0.293689
     61 C19        -6.8770   -1.7760   -1.9110 c3        1 MOL     -0.090580
     62 C20        -7.0630   -2.7730   -0.7570 c         1 MOL      0.471160
     63 O10        -7.6480   -3.8420   -0.9290 o         1 MOL     -0.544994
     64 C21        -5.6880   -2.1560   -2.9190 c3        1 MOL     -0.310451
     65 C22        -4.3150   -1.9880   -2.4240 c         1 MOL      0.678628
     66 O11        -3.4310   -1.5170   -3.2230 o         1 MOL     -0.696266
     67 O12        -4.0060   -2.2580   -1.2390 o         1 MOL     -0.696266
     68 H28        -5.8850    0.1350   -1.8700 hn        1 MOL      0.246075
     69 H29        -7.8030   -1.6950   -2.4810 h1        1 MOL      0.101703
     70 H30        -5.7810   -1.5790   -3.8410 hc        1 MOL      0.123860
     71 H31        -5.7030   -3.2270   -3.1080 hc        1 MOL      0.123860
     72 N7         -6.4770   -2.4460    0.4120 n         1 MOL     -0.167039
     73 C23        -6.4160   -3.2910    1.6160 c3        1 MOL     -0.154417
     74 C24        -5.1900   -4.1940    1.7220 c         1 MOL      0.576151
     75 O13        -5.2380   -5.2750    2.3140 o         1 MOL     -0.590401
     76 H32        -5.9850   -1.5710    0.4570 hn        1 MOL      0.304260
     77 H33        -7.2790   -3.9390    1.7140 h1        1 MOL      0.075704
     78 H34        -6.2980   -2.5400    2.3990 h1        1 MOL      0.075704
     79 N8         -4.0530   -3.7080    1.3020 n         1 MOL     -0.138360
     80 C25        -2.7570   -4.4140    1.2760 c3        1 MOL     -0.258259
     81 C26        -1.6130   -3.3710    1.2400 c         1 MOL      0.612025
     82 O14        -1.7900   -2.2660    0.7720 o         1 MOL     -0.604566
     83 C27        -2.5670   -5.2510   -0.0120 c3        1 MOL      0.582275
     84 C28        -3.4250   -6.5080   -0.0230 c3        1 MOL     -0.520735
     85 O15        -2.7480   -4.6360   -1.2550 oh        1 MOL     -0.666519
     86 H35        -4.0740   -2.8020    0.8630 hn        1 MOL      0.033167
     87 H36        -2.6300   -5.0810    2.1330 h1        1 MOL      0.112686
     88 H37        -1.5850   -5.7160   -0.0080 h1        1 MOL     -0.030540
     89 H38        -3.3330   -3.8790   -1.1420 ho        1 MOL      0.452186
     90 H39        -3.0650   -7.1210    0.7980 hc        1 MOL      0.126624
     91 H40        -4.4840   -6.2780    0.1300 hc        1 MOL      0.126624
     92 H41        -3.2310   -6.9610   -1.0000 hc        1 MOL      0.126624
     93 N9         -0.4290   -3.7490    1.6800 n         1 MOL     -0.545290
     94 C29         0.8300   -3.0300    1.7780 c3        1 MOL      0.098496
     95 C30         1.9250   -3.6030    0.8780 c         1 MOL      0.486552
     96 O16         2.3350   -4.7430    1.1600 o         1 MOL     -0.538946
     97 C31         1.1260   -2.8560    3.3040 c3        1 MOL     -0.038328
     98 C32         0.0140   -2.0610    3.9650 c3        1 MOL      0.251581
     99 C33         2.5290   -2.1800    3.5090 c3        1 MOL     -0.385669
    100 C34         0.1360   -1.7760    5.4580 c3        1 MOL     -0.383875
    101 H42        -0.5290   -4.6260    2.1620 hn        1 MOL      0.273677
    102 H43         0.5960   -2.0610    1.3470 h1        1 MOL      0.034181
    103 H44         1.1870   -3.8600    3.7190 hc        1 MOL      0.042614
    104 H45        -0.9090   -2.6120    3.7960 hc        1 MOL     -0.001677
    105 H46         0.0090   -1.0660    3.5190 hc        1 MOL     -0.001677
    106 H47         2.5480   -1.0970    3.4010 hc        1 MOL      0.098843
    107 H48         2.8610   -2.4120    4.5140 hc        1 MOL      0.098843
    108 H49         3.2020   -2.5360    2.7210 hc        1 MOL      0.098843
    109 H50         0.3770   -2.7350    5.9080 hc        1 MOL      0.090992
    110 H51         0.8560   -0.9830    5.6770 hc        1 MOL      0.090992
    111 H52        -0.8700   -1.4640    5.7610 hc        1 MOL      0.090992
    112 N10         2.3680   -2.8650   -0.1220 n         1 MOL     -0.354444
    113 C35         3.5590   -3.2400   -0.9470 c3        1 MOL     -0.059462
    114 C36         4.9480   -2.8950   -0.3090 c         1 MOL      0.322175
    115 O17         4.9760   -2.0630    0.6010 o         1 MOL     -0.154222
    116 C37         3.5350   -2.3890   -2.3100 c3        1 MOL      0.360346
    117 C38         2.6430   -2.9180   -3.3520 c3        1 MOL     -0.605104
    118 O18         3.2590   -0.9710   -2.2110 oh        1 MOL     -0.651538
    119 H53         1.8940   -2.0050   -0.3400 hn        1 MOL      0.401229
    120 H54         3.5750   -4.3090   -1.1420 h1        1 MOL      0.094309
    121 H55         4.5770   -2.4600   -2.5980 h1        1 MOL      0.013869
    122 H56         2.3410   -0.9060   -1.9360 ho        1 MOL      0.464271
    123 H57         1.6440   -2.7940   -2.9210 hc        1 MOL      0.162382
    124 H58         2.8660   -2.3360   -4.2420 hc        1 MOL      0.162382
    125 H59         2.8660   -3.9830   -3.4140 hc        1 MOL      0.162382
    126 N11         6.1110   -3.3000   -0.8820 n         1 MOL     -0.386540
    127 C39         7.4140   -2.8570   -0.3640 c3        1 MOL     -0.041009
    128 C40         7.5720   -1.3260   -0.1690 c         1 MOL      0.355657
    129 O19         8.0150   -0.9250    0.9020 o         1 MOL     -0.486319
    130 C41         8.5880   -3.3120   -1.2030 c3        1 MOL      0.229614
    131 C42         8.7970   -4.7620   -0.8500 c3        1 MOL     -0.415273
    132 O20         8.2850   -3.2090   -2.5960 oh        1 MOL     -0.666056
    133 H60         6.1260   -3.8240   -1.7310 hn        1 MOL      0.293712
    134 H61         7.6000   -3.2460    0.6340 h1        1 MOL      0.120477
    135 H62         9.4550   -2.6970   -0.9850 h1        1 MOL      0.082552
    136 H63         8.8210   -3.8590   -3.0500 ho        1 MOL      0.440459
    137 H64         8.0410   -5.3060   -1.4070 hc        1 MOL      0.117534
    138 H65         9.7300   -5.0980   -1.2900 hc        1 MOL      0.117534
    139 H66         8.8710   -4.9750    0.2240 hc        1 MOL      0.117534
    140 N12         7.1030   -0.5060   -1.1200 n         1 MOL     -0.245202
    141 C43         7.1160    0.9760   -1.1200 c3        1 MOL     -0.083723
    142 C44         6.1720    1.6360   -0.0580 c         1 MOL      0.426152
    143 O21         6.5070    2.6280    0.5110 o         1 MOL     -0.534406
    144 C45         6.8270    1.4440   -2.5910 c3        1 MOL     -0.164609
    145 C46         6.7650    2.9850   -2.6390 c3        1 MOL      0.031641
    146 C47         6.5700    3.5470   -4.0400 c3        1 MOL     -0.019121
    147 C48         5.7390    4.8190   -4.0020 c3        1 MOL     -0.005530
    148 N13         5.5650    5.5070   -5.3310 n4        1 MOL     -0.289471
    149 H67         6.6880   -0.9730   -1.9190 hn        1 MOL      0.260581
    150 H68         8.1030    1.2860   -0.7700 h1        1 MOL      0.132873
    151 H69         5.9200    0.9440   -2.9380 hc        1 MOL      0.070898
    152 H70         7.6060    0.9720   -3.1800 hc        1 MOL      0.070898
    153 H71         7.5500    3.5290   -2.0970 hc        1 MOL      0.027708
    154 H72         5.8470    3.1700   -2.0940 hc        1 MOL      0.027708
    155 H73         6.0250    2.8130   -4.6310 hc        1 MOL      0.030550
    156 H74         7.5110    3.6390   -4.5800 hc        1 MOL      0.030550
    157 H75         6.1670    5.5830   -3.3500 hx        1 MOL      0.099031
    158 H76         4.7880    4.4430   -3.6220 hx        1 MOL      0.099031
    159 H77         5.3820    4.8130   -6.0430 hn        1 MOL      0.312495
    160 H78         4.8310    6.2010   -5.3500 hn        1 MOL      0.312495
    161 H79         6.4370    5.9610   -5.5760 hn        1 MOL      0.312495
    162 N14         5.0570    1.0270    0.3420 n         1 MOL     -0.078436
    163 C49         4.1180    1.4740    1.3810 c3        1 MOL     -0.089288
    164 C50         4.7090    1.0130    2.7530 c         1 MOL      0.441516
    165 O22         4.5510    1.7220    3.7840 o         1 MOL     -0.556887
    166 C51         2.8500    0.7660    1.0390 c3        1 MOL      0.146206
    167 C52         2.1970    1.4260   -0.1860 c3        1 MOL     -0.430616
    168 C53         0.8630    0.6610   -0.5630 c         1 MOL      0.755280
    169 O23         0.8890   -0.5250   -0.8580 o         1 MOL     -0.700187
    170 O24        -0.2560    1.2700   -0.5670 o         1 MOL     -0.700187
    171 H80         4.8350    0.1240   -0.0490 hn        1 MOL      0.073132
    172 H81         3.9220    2.5520    1.4470 h1        1 MOL      0.076974
    173 H82         2.1880    0.9460    1.8930 hc        1 MOL      0.051012
    174 H83         3.0330   -0.2880    0.8620 hc        1 MOL      0.051012
    175 H84         2.8910    1.3010   -1.0170 hc        1 MOL      0.089650
    176 H85         1.9420    2.4500    0.1180 hc        1 MOL      0.089650
    177 N15         5.2950   -0.2110    2.8000 n         1 MOL     -0.045858
    178 C54         5.7260   -0.8870    4.0590 c3        1 MOL     -0.271445
    179 H86         5.1840   -0.4610    4.9030 h1        1 MOL      0.108727
    180 H87         5.5110   -1.9530    3.9910 h1        1 MOL      0.108727
    181 H88         6.7950   -0.7390    4.2030 h1        1 MOL      0.108727
    182 H89         5.1550   -0.7620    1.9620 hn        1 MOL     -0.014889
    183 Ca1        -1.8590   -0.6070   -1.4700 Ca        1 MOL      1.719827
    184 O25        -0.8810   -2.9550   -2.0340 oh        1 MOL     -0.915142
    185 H90        -1.5900   -3.5530   -1.8140 ho        1 MOL      0.409832
    186 H91        -0.5410   -3.3000   -2.8600 ho        1 MOL      0.409832
    187 O26        -0.2950   -0.1360   -3.9280 oh        1 MOL     -0.915142
    188 H92        -0.9490    0.2280   -4.5300 ho        1 MOL      0.409832
    189 H93         0.5040   -0.2000   -4.4550 ho        1 MOL      0.409832
@<TRIPOS>BOND
     1    1    2 1   
     2    1    4 1   
     3    1    5 1   
     4    1    6 1   
     5    2    3 2   
     6    2    7 1   
     7    7    8 1   
     8    7   15 1   
     9    8    9 1   
    10    8   11 1   
    11    8   16 1   
    12    9   10 2   
    13    9   19 1   
    14   11   12 1   
    15   11   17 1   
    16   11   18 1   
    17   12   13 1   
    18   12   14 1   
    19   19   20 1   
    20   19   28 1   
    21   20   21 1   
    22   20   23 1   
    23   20   29 1   
    24   21   22 2   
    25   21   41 1   
    26   23   24 1   
    27   23   30 1   
    28   23   31 1   
    29   24   25 1   
    30   24   32 1   
    31   24   33 1   
    32   25   26 1   
    33   25   34 1   
    34   25   35 1   
    35   26   27 1   
    36   26   36 1   
    37   26   37 1   
    38   27   38 1   
    39   27   39 1   
    40   27   40 1   
    41   41   42 1   
    42   41   49 1   
    43   42   43 1   
    44   42   45 1   
    45   42   50 1   
    46   43   44 2   
    47   43   53 1   
    48   45   46 1   
    49   45   51 1   
    50   45   52 1   
    51   46   47 1   
    52   46   48 1   
    53   53   54 1   
    54   53   57 1   
    55   54   55 1   
    56   54   58 1   
    57   54   59 1   
    58   55   56 2   
    59   55   60 1   
    60   60   61 1   
    61   60   68 1   
    62   61   62 1   
    63   61   64 1   
    64   61   69 1   
    65   62   63 2   
    66   62   72 1   
    67   64   65 1   
    68   64   70 1   
    69   64   71 1   
    70   65   66 1   
    71   65   67 1   
    72   72   73 1   
    73   72   76 1   
    74   73   74 1   
    75   73   77 1   
    76   73   78 1   
    77   74   75 2   
    78   74   79 1   
    79   79   80 1   
    80   79   86 1   
    81   80   81 1   
    82   80   83 1   
    83   80   87 1   
    84   81   82 2   
    85   81   93 1   
    86   83   84 1   
    87   83   85 1   
    88   83   88 1   
    89   84   90 1   
    90   84   91 1   
    91   84   92 1   
    92   85   89 1   
    93   93   94 1   
    94   93  101 1   
    95   94   95 1   
    96   94   97 1   
    97   94  102 1   
    98   95   96 2   
    99   95  112 1   
   100   97   98 1   
   101   97   99 1   
   102   97  103 1   
   103   98  100 1   
   104   98  104 1   
   105   98  105 1   
   106   99  106 1   
   107   99  107 1   
   108   99  108 1   
   109  100  109 1   
   110  100  110 1   
   111  100  111 1   
   112  112  113 1   
   113  112  119 1   
   114  113  114 1   
   115  113  116 1   
   116  113  120 1   
   117  114  115 2   
   118  114  126 1   
   119  116  117 1   
   120  116  118 1   
   121  116  121 1   
   122  117  123 1   
   123  117  124 1   
   124  117  125 1   
   125  118  122 1   
   126  126  127 1   
   127  126  133 1   
   128  127  128 1   
   129  127  130 1   
   130  127  134 1   
   131  128  129 2   
   132  128  140 1   
   133  130  131 1   
   134  130  132 1   
   135  130  135 1   
   136  131  137 1   
   137  131  138 1   
   138  131  139 1   
   139  132  136 1   
   140  140  141 1   
   141  140  149 1   
   142  141  142 1   
   143  141  144 1   
   144  141  150 1   
   145  142  143 2   
   146  142  162 1   
   147  144  145 1   
   148  144  151 1   
   149  144  152 1   
   150  145  146 1   
   151  145  153 1   
   152  145  154 1   
   153  146  147 1   
   154  146  155 1   
   155  146  156 1   
   156  147  148 1   
   157  147  157 1   
   158  147  158 1   
   159  148  159 1   
   160  148  160 1   
   161  148  161 1   
   162  162  163 1   
   163  162  171 1   
   164  163  164 1   
   165  163  166 1   
   166  163  172 1   
   167  164  165 2   
   168  164  177 1   
   169  166  167 1   
   170  166  173 1   
   171  166  174 1   
   172  167  168 1   
   173  167  175 1   
   174  167  176 1   
   175  168  169 1   
   176  168  170 1   
   177  177  178 1   
   178  177  182 1   
   179  178  179 1   
   180  178  180 1   
   181  178  181 1   
   182  184  185 1   
   183  184  186 1   
   184  187  188 1   
   185  187  189 1   
@<TRIPOS>SUBSTRUCTURE
     1 MOL         1 TEMP              0 ****  ****    0 ROOT
