@<TRIPOS>MOLECULE
MOL
  183   181     1     0     0
SMALL
resp


@<TRIPOS>ATOM
      1 C1         -1.1770    0.8240    6.5970 c3        1 MOL     -0.266474
      2 C2         -1.3480    1.2000    5.0810 c         1 MOL      0.751064
      3 O1         -0.4100    1.7320    4.4590 o         1 MOL     -0.586955
      4 H1         -1.8360   -0.0100    6.8410 hc        1 MOL      0.058860
      5 H2         -0.1430    0.5360    6.7860 hc        1 MOL      0.058860
      6 H3         -1.4350    1.6830    7.2170 hc        1 MOL      0.058860
      7 N1         -2.4820    0.7880    4.4720 n         1 MOL     -0.707837
      8 C3         -2.9030    0.9020    3.0910 c3        1 MOL      0.448685
      9 C4         -3.2630    2.3490    2.7940 c         1 MOL      0.437250
     10 O2         -4.0730    2.8960    3.6170 o         1 MOL     -0.596667
     11 C5         -4.1050   -0.0210    2.9040 c3        1 MOL     -0.215752
     12 C6         -4.7230   -0.0390    1.4890 c         1 MOL      0.727936
     13 O3         -5.9180   -0.3920    1.3110 o         1 MOL     -0.653486
     14 O4         -3.9680    0.3140    0.6080 o         1 MOL     -0.653486
     15 H4         -3.1650    0.4500    5.1470 hn        1 MOL      0.320054
     16 H5         -2.1680    0.5200    2.3880 h1        1 MOL     -0.021812
     17 H6         -4.8640    0.2420    3.6450 hc        1 MOL      0.006266
     18 H7         -3.8220   -1.0640    3.0350 hc        1 MOL      0.006266
     19 N2         -2.6930    3.0040    1.7930 n         1 MOL     -0.194775
     20 C7         -2.7830    4.4780    1.4750 c3        1 MOL      0.035312
     21 C8         -3.8620    4.9380    0.5090 c         1 MOL      0.463631
     22 O5         -4.5610    5.8800    0.7330 o         1 MOL     -0.533567
     23 C9         -1.3180    4.9620    1.0770 c3        1 MOL      0.123688
     24 C10        -0.3370    4.6890    2.2220 c3        1 MOL      0.081749
     25 C11        -1.2320    6.4590    0.7440 c3        1 MOL     -0.380515
     26 C12        -0.6260    5.2560    3.6280 c3        1 MOL     -0.258121
     27 H8         -2.0730    2.5250    1.1600 hn        1 MOL      0.113950
     28 H9         -3.0050    5.0490    2.3740 h1        1 MOL      0.041616
     29 H10        -1.0920    4.4510    0.1530 hc        1 MOL      0.036142
     30 H11         0.7020    4.9400    2.0220 hc        1 MOL      0.008042
     31 H12        -0.3390    3.6200    2.4420 hc        1 MOL      0.008042
     32 H13        -0.1860    6.6920    0.5830 hc        1 MOL      0.086487
     33 H14        -1.6160    6.6890   -0.2520 hc        1 MOL      0.086487
     34 H15        -1.7310    7.0360    1.5260 hc        1 MOL      0.086487
     35 H16         0.2720    5.1300    4.2240 hc        1 MOL      0.055556
     36 H17        -0.8860    6.3210    3.5630 hc        1 MOL      0.055556
     37 H18        -1.3700    4.6320    4.1200 hc        1 MOL      0.055556
     38 N3         -3.9410    4.1640   -0.6290 n         1 MOL     -0.437058
     39 C13        -4.8610    4.4770   -1.7890 c3        1 MOL      0.239903
     40 C14        -6.2080    3.7550   -1.6420 c         1 MOL      0.429450
     41 O6         -7.2020    4.1680   -2.1640 o         1 MOL     -0.556186
     42 C15        -4.0880    4.0860   -3.1070 c3        1 MOL     -0.439647
     43 C16        -3.4040    2.7100   -3.1290 c         1 MOL      0.876835
     44 O7         -3.4000    1.8920   -2.2500 o         1 MOL     -0.718521
     45 O8         -2.7250    2.4850   -4.1410 o         1 MOL     -0.718521
     46 H19        -3.2750    3.4240   -0.8060 hn        1 MOL      0.257176
     47 H20        -5.1250    5.5370   -1.7520 h1        1 MOL      0.025696
     48 H21        -3.3460    4.8700   -3.2660 hc        1 MOL      0.094389
     49 H22        -4.7800    4.1200   -3.9450 hc        1 MOL      0.094389
     50 N4         -6.1280    2.6140   -0.9230 n         1 MOL     -0.014651
     51 C17        -7.2650    1.9320   -0.3980 c3        1 MOL     -0.217435
     52 C18        -7.7210    0.8190   -1.3310 c         1 MOL      0.657955
     53 O9         -8.7200    1.0480   -2.0140 o         1 MOL     -0.597795
     54 H23        -5.2520    2.1870   -0.6720 hn        1 MOL      0.029064
     55 H24        -8.1050    2.6290   -0.3860 h1        1 MOL      0.070533
     56 H25        -7.1720    1.4880    0.5900 h1        1 MOL      0.070533
     57 N5         -7.1490   -0.3710   -1.1860 n         1 MOL     -0.504530
     58 C19        -7.3430   -1.5450   -2.0110 c3        1 MOL      0.148610
     59 C20        -7.3310   -2.8110   -1.1040 c         1 MOL      0.395509
     60 O10        -7.4960   -3.9430   -1.5140 o         1 MOL     -0.565593
     61 C21        -6.2500   -1.7480   -3.2280 c3        1 MOL     -0.147307
     62 C22        -4.8020   -1.5660   -2.7150 c         1 MOL      0.623420
     63 O11        -3.9650   -0.8910   -3.3280 o         1 MOL     -0.672266
     64 O12        -4.5570   -1.8730   -1.5390 o         1 MOL     -0.672266
     65 H26        -6.3930   -0.4090   -0.5270 hn        1 MOL      0.334392
     66 H27        -8.3490   -1.4020   -2.3900 h1        1 MOL      0.038397
     67 H28        -6.4360   -0.9100   -3.8920 hc        1 MOL      0.039929
     68 H29        -6.5030   -2.6350   -3.8150 hc        1 MOL      0.039929
     69 N6         -7.1070   -2.6230    0.1880 n         1 MOL     -0.252520
     70 C23        -6.9980   -3.7380    1.1270 c3        1 MOL      0.015609
     71 C24        -5.5970   -4.3750    1.3200 c         1 MOL      0.488088
     72 O13        -5.5490   -5.3590    2.0560 o         1 MOL     -0.592689
     73 H30        -6.9120   -1.6680    0.4400 hn        1 MOL      0.170199
     74 H31        -7.6660   -4.5640    0.8860 h1        1 MOL      0.043779
     75 H32        -7.3340   -3.3810    2.1010 h1        1 MOL      0.043779
     76 N7         -4.5380   -3.8680    0.6600 n         1 MOL     -0.078488
     77 C25        -3.2500   -4.5070    0.5780 c3        1 MOL     -0.019673
     78 C26        -2.1650   -3.4590    0.8760 c         1 MOL      0.449942
     79 O14        -2.3010   -2.2650    0.6150 o         1 MOL     -0.599956
     80 C27        -3.0380   -5.3850   -0.7130 c3        1 MOL     -0.032134
     81 C28        -3.2320   -4.7140   -2.1200 c3        1 MOL     -0.270867
     82 C29        -2.0550   -3.8370   -2.6260 c         1 MOL      0.705579
     83 N8         -1.4820   -4.0200   -3.7810 n         1 MOL     -0.769027
     84 O15        -1.6410   -2.8730   -1.9880 o         1 MOL     -0.668252
     85 H33        -4.5880   -2.9720    0.1920 hn        1 MOL      0.106458
     86 H34        -3.1430   -5.1610    1.4470 h1        1 MOL      0.007326
     87 H35        -3.8150   -6.1560   -0.6410 hc        1 MOL      0.034007
     88 H36        -2.0530   -5.8100   -0.5360 hc        1 MOL      0.034007
     89 H37        -4.1480   -4.1460   -1.9560 hc        1 MOL      0.087936
     90 H38        -3.2550   -5.5980   -2.7560 hc        1 MOL      0.087936
     91 H39        -1.7680   -4.7840   -4.3810 hn        1 MOL      0.367328
     92 H40        -0.8930   -3.2350   -4.0050 hn        1 MOL      0.367328
     93 N9         -0.9680   -3.9090    1.2710 n         1 MOL     -0.207431
     94 C30         0.1820   -3.0480    1.6580 c3        1 MOL     -0.006576
     95 C31         1.3590   -3.4740    0.7830 c         1 MOL      0.325419
     96 O16         1.8360   -4.5800    1.0100 o         1 MOL     -0.559288
     97 C32         0.5000   -3.1510    3.1510 c3        1 MOL      0.177724
     98 C33         1.2550   -1.9000    3.6810 c3        1 MOL     -0.338972
     99 C34        -0.7720   -3.3190    4.0320 c3        1 MOL     -0.338972
    100 H41        -0.8610   -4.8830    1.5100 hn        1 MOL      0.245085
    101 H42        -0.1460   -2.0290    1.4550 h1        1 MOL      0.165183
    102 H43         1.0660   -4.0580    3.3850 hc        1 MOL      0.010805
    103 H44         1.5200   -1.8220    4.7310 hc        1 MOL      0.079333
    104 H45         2.2350   -1.8380    3.2090 hc        1 MOL      0.079333
    105 H46         0.7710   -0.9660    3.3740 hc        1 MOL      0.079333
    106 H47        -1.5250   -2.5690    3.7860 hc        1 MOL      0.079333
    107 H48        -1.1520   -4.3260    3.8560 hc        1 MOL      0.079333
    108 H49        -0.5260   -3.2480    5.0910 hc        1 MOL      0.079333
    109 N10         1.8240   -2.7270   -0.2190 n         1 MOL     -0.170557
    110 C35         3.0630   -3.0330   -0.9680 c3        1 MOL      0.229584
    111 C36         4.3810   -2.3440   -0.3650 c         1 MOL      0.255011
    112 O17         4.2850   -1.6470    0.6580 o         1 MOL     -0.270466
    113 C37         2.9160   -2.6270   -2.4530 c3        1 MOL     -0.553368
    114 C38         3.3380   -1.1950   -2.6750 c         1 MOL      0.721255
    115 N11         2.6070   -0.1780   -2.2690 n         1 MOL     -0.655208
    116 O18         4.4000   -0.9390   -3.2140 o         1 MOL     -0.604676
    117 H50         1.4770   -1.7860   -0.2960 hn        1 MOL      0.091990
    118 H51         3.1600   -4.1190   -0.9710 h1        1 MOL      0.065369
    119 H52         1.8660   -2.6990   -2.7330 hc        1 MOL      0.171049
    120 H53         3.5290   -3.2710   -3.0690 hc        1 MOL      0.171049
    121 H54         1.6960   -0.3020   -1.8650 hn        1 MOL      0.335094
    122 H55         2.9750    0.7590   -2.3320 hn        1 MOL      0.335094
    123 N12         5.5870   -2.5170   -0.8700 n         1 MOL     -0.521350
    124 C39         6.7720   -1.9180   -0.3690 c3        1 MOL      0.329306
    125 C40         6.7260   -0.3640   -0.2460 c         1 MOL      0.741196
    126 O19         7.2830    0.0960    0.8190 o         1 MOL     -0.529463
    127 C41         7.9840   -2.4630   -1.2010 c3        1 MOL     -0.115506
    128 C42         9.3280   -2.0040   -0.7970 ca        1 MOL     -0.048489
    129 C43         9.7910   -2.3790    0.4780 ca        1 MOL     -0.135004
    130 C44         9.9460   -0.9820   -1.5230 ca        1 MOL     -0.135004
    131 C45        10.9080   -1.7310    1.0150 ca        1 MOL     -0.268244
    132 C46        11.1640   -0.4220   -1.0930 ca        1 MOL     -0.268244
    133 C47        11.6180   -0.7710    0.2400 ca        1 MOL      0.307446
    134 O20        12.5680   -0.0260    0.8230 oh        1 MOL     -0.491450
    135 H56         5.5610   -3.0500   -1.7310 hn        1 MOL      0.279667
    136 H57         7.0770   -2.2100    0.6340 h1        1 MOL      0.000735
    137 H58         7.8330   -2.2180   -2.2520 hc        1 MOL      0.033821
    138 H59         7.9030   -3.5420   -1.0580 hc        1 MOL      0.033821
    139 H60         9.2130   -3.1210    1.0090 ha        1 MOL      0.139116
    140 H61         9.5710   -0.6250   -2.4720 ha        1 MOL      0.139116
    141 H62        11.2080   -1.9120    2.0350 ha        1 MOL      0.153412
    142 H63        11.6450    0.3260   -1.6950 ha        1 MOL      0.153412
    143 H64        12.9130    0.6200    0.2060 ho        1 MOL      0.378914
    144 N13         6.0690    0.3910   -1.1480 n         1 MOL     -0.725383
    145 C48         6.1290    1.8290   -0.9270 c3        1 MOL      0.076564
    146 C49         5.3200    2.2370    0.2900 c         1 MOL      0.216312
    147 O21         5.5140    3.3150    0.8610 o         1 MOL     -0.511807
    148 C50         5.6980    2.5840   -2.2140 c3        1 MOL      0.020292
    149 C51         6.9240    2.4270   -3.1500 c3        1 MOL     -0.230655
    150 C52         6.9100    3.6100   -4.1470 c         1 MOL      0.701843
    151 O22         7.6000    4.6150   -3.8800 o         1 MOL     -0.745451
    152 O23         6.2040    3.4920   -5.1540 o         1 MOL     -0.745451
    153 H65         5.6590   -0.1050   -1.9280 hn        1 MOL      0.361711
    154 H66         7.1260    2.1220   -0.6070 h1        1 MOL      0.106996
    155 H67         5.4960    3.6270   -1.9640 hc        1 MOL      0.062428
    156 H68         4.7700    2.1320   -2.5490 hc        1 MOL      0.062428
    157 H69         6.9490    1.4950   -3.7160 hc        1 MOL      0.036371
    158 H70         7.9090    2.4820   -2.6890 hc        1 MOL      0.036371
    159 N14         4.3490    1.4410    0.7080 n         1 MOL      0.075126
    160 C53         3.4250    1.6700    1.8540 c3        1 MOL     -0.172334
    161 C54         3.9790    1.0140    3.1580 c         1 MOL      0.493892
    162 O24         3.7850    1.4970    4.2690 o         1 MOL     -0.555478
    163 C55         2.1440    0.9960    1.5260 c3        1 MOL      0.046969
    164 C56         1.4210    1.7060    0.3540 c3        1 MOL      0.289579
    165 C57         0.2220    0.8460   -0.0840 c         1 MOL      0.453147
    166 O25        -0.9110    1.3650   -0.0140 o         1 MOL     -0.656127
    167 O26         0.3120   -0.3040   -0.5590 o         1 MOL     -0.656127
    168 H71         4.2850    0.5830    0.1860 hn        1 MOL      0.012139
    169 H72         3.3420    2.7370    2.0330 h1        1 MOL      0.119354
    170 H73         1.4690    1.0060    2.3830 hc        1 MOL      0.043587
    171 H74         2.3820   -0.0180    1.1960 hc        1 MOL      0.043587
    172 H75         2.1530    1.9620   -0.4120 hc        1 MOL     -0.104279
    173 H76         0.9790    2.6540    0.6720 hc        1 MOL     -0.104279
    174 N15         4.8550   -0.0210    3.0040 n         1 MOL     -0.105282
    175 C58         5.6100   -0.7330    4.0400 c3        1 MOL     -0.175661
    176 H77         5.0130   -1.5630    4.4180 h1        1 MOL      0.069710
    177 H78         6.5370   -1.1170    3.6160 h1        1 MOL      0.069710
    178 H79         5.8390   -0.0490    4.8580 h1        1 MOL      0.069710
    179 H80         4.9370   -0.4290    2.0800 hn        1 MOL      0.010540
    180 Ca1        -2.4220   -0.4780   -1.2180 Ca        1 MOL      1.757810
    181 O27        -0.8940    0.7240   -3.3520 oh        1 MOL     -0.856719
    182 H81        -1.5590    1.4170   -3.3680 ho        1 MOL      0.394236
    183 H82        -0.1210    1.1320   -3.7560 ho        1 MOL      0.394236
@<TRIPOS>BOND
     1    1    2 1   
     2    1    4 1   
     3    1    5 1   
     4    1    6 1   
     5    2    3 2   
     6    2    7 1   
     7    7    8 1   
     8    7   15 1   
     9    8    9 1   
    10    8   11 1   
    11    8   16 1   
    12    9   10 2   
    13    9   19 1   
    14   11   12 1   
    15   11   17 1   
    16   11   18 1   
    17   12   13 1   
    18   12   14 1   
    19   19   20 1   
    20   19   27 1   
    21   20   21 1   
    22   20   23 1   
    23   20   28 1   
    24   21   22 2   
    25   21   38 1   
    26   23   24 1   
    27   23   25 1   
    28   23   29 1   
    29   24   26 1   
    30   24   30 1   
    31   24   31 1   
    32   25   32 1   
    33   25   33 1   
    34   25   34 1   
    35   26   35 1   
    36   26   36 1   
    37   26   37 1   
    38   38   39 1   
    39   38   46 1   
    40   39   40 1   
    41   39   42 1   
    42   39   47 1   
    43   40   41 2   
    44   40   50 1   
    45   42   43 1   
    46   42   48 1   
    47   42   49 1   
    48   43   44 1   
    49   43   45 1   
    50   50   51 1   
    51   50   54 1   
    52   51   52 1   
    53   51   55 1   
    54   51   56 1   
    55   52   53 2   
    56   52   57 1   
    57   57   58 1   
    58   57   65 1   
    59   58   59 1   
    60   58   61 1   
    61   58   66 1   
    62   59   60 2   
    63   59   69 1   
    64   61   62 1   
    65   61   67 1   
    66   61   68 1   
    67   62   63 1   
    68   62   64 1   
    69   69   70 1   
    70   69   73 1   
    71   70   71 1   
    72   70   74 1   
    73   70   75 1   
    74   71   72 2   
    75   71   76 1   
    76   76   77 1   
    77   76   85 1   
    78   77   78 1   
    79   77   80 1   
    80   77   86 1   
    81   78   79 2   
    82   78   93 1   
    83   80   81 1   
    84   80   87 1   
    85   80   88 1   
    86   81   82 1   
    87   81   89 1   
    88   81   90 1   
    89   82   83 1   
    90   82   84 2   
    91   83   91 1   
    92   83   92 1   
    93   93   94 1   
    94   93  100 1   
    95   94   95 1   
    96   94   97 1   
    97   94  101 1   
    98   95   96 2   
    99   95  109 1   
   100   97   98 1   
   101   97   99 1   
   102   97  102 1   
   103   98  103 1   
   104   98  104 1   
   105   98  105 1   
   106   99  106 1   
   107   99  107 1   
   108   99  108 1   
   109  109  110 1   
   110  109  117 1   
   111  110  111 1   
   112  110  113 1   
   113  110  118 1   
   114  111  112 2   
   115  111  123 1   
   116  113  114 1   
   117  113  119 1   
   118  113  120 1   
   119  114  115 1   
   120  114  116 2   
   121  115  121 1   
   122  115  122 1   
   123  123  124 1   
   124  123  135 1   
   125  124  125 1   
   126  124  127 1   
   127  124  136 1   
   128  125  126 2   
   129  125  144 1   
   130  127  128 1   
   131  127  137 1   
   132  127  138 1   
   133  128  129 ar  
   134  128  130 ar  
   135  129  131 ar  
   136  129  139 1   
   137  130  132 ar  
   138  130  140 1   
   139  131  133 ar  
   140  131  141 1   
   141  132  133 ar  
   142  132  142 1   
   143  133  134 1   
   144  134  143 1   
   145  144  145 1   
   146  144  153 1   
   147  145  146 1   
   148  145  148 1   
   149  145  154 1   
   150  146  147 2   
   151  146  159 1   
   152  148  149 1   
   153  148  155 1   
   154  148  156 1   
   155  149  150 1   
   156  149  157 1   
   157  149  158 1   
   158  150  151 1   
   159  150  152 1   
   160  159  160 1   
   161  159  168 1   
   162  160  161 1   
   163  160  163 1   
   164  160  169 1   
   165  161  162 2   
   166  161  174 1   
   167  163  164 1   
   168  163  170 1   
   169  163  171 1   
   170  164  165 1   
   171  164  172 1   
   172  164  173 1   
   173  165  166 1   
   174  165  167 1   
   175  174  175 1   
   176  174  179 1   
   177  175  176 1   
   178  175  177 1   
   179  175  178 1   
   180  181  182 1   
   181  181  183 1   
@<TRIPOS>SUBSTRUCTURE
     1 MOL         1 TEMP              0 ****  ****    0 ROOT
