@<TRIPOS>MOLECULE
MOL
  176   174     1     0     0
SMALL
resp


@<TRIPOS>ATOM
      1 C1          1.7060    2.7060    6.2250 c3        1 MOL     -0.257652
      2 C2          1.2780    2.7570    4.7600 c         1 MOL      0.761002
      3 O1          2.0530    2.5800    3.8660 o         1 MOL     -0.545201
      4 H1          2.7920    2.7710    6.2880 hc        1 MOL      0.062468
      5 H2          1.2600    3.5410    6.7640 hc        1 MOL      0.062468
      6 H3          1.3730    1.7680    6.6690 hc        1 MOL      0.062468
      7 N1         -0.0000    2.9100    4.4740 n         1 MOL     -0.736359
      8 C3         -0.4140    3.0130    3.0820 c3        1 MOL      0.323715
      9 C4          0.0160    4.3020    2.3470 c         1 MOL      0.500379
     10 O2          0.2480    5.4370    2.8370 o         1 MOL     -0.550852
     11 C5         -1.9160    2.6640    2.9830 c3        1 MOL     -0.241308
     12 C6         -2.1500    1.8700    1.7050 c         1 MOL      1.164151
     13 O3         -2.0790    2.3960    0.5790 o         1 MOL     -0.931508
     14 O4         -2.4170    0.6260    1.6790 o         1 MOL     -0.931508
     15 H4         -0.7210    2.9830    5.1680 hn        1 MOL      0.368476
     16 H5          0.1630    2.2070    2.6270 h1        1 MOL     -0.105699
     17 H6         -2.4850    3.5940    3.0750 hc        1 MOL      0.026471
     18 H7         -2.1600    2.0630    3.8550 hc        1 MOL      0.026471
     19 N2          0.1580    4.1950    0.9840 n         1 MOL     -0.486021
     20 C7          0.4580    5.3310    0.0700 c3        1 MOL      0.107902
     21 C8         -0.7470    5.5100   -0.9570 c         1 MOL      0.513913
     22 O5         -0.6230    6.4650   -1.7120 o         1 MOL     -0.593755
     23 C9          1.7400    4.9960   -0.7000 c3        1 MOL     -0.001518
     24 C10         2.8260    6.0710   -0.9350 c3        1 MOL      0.011075
     25 C11         3.8960    5.5470   -1.8670 c3        1 MOL      0.013435
     26 C12         4.5570    6.5650   -2.8140 c3        1 MOL      0.021794
     27 N3          5.3780    5.9370   -3.8000 n4        1 MOL     -0.359904
     28 H8          0.0930    3.2610    0.5970 hn        1 MOL      0.355241
     29 H9          0.5370    6.2820    0.5880 h1        1 MOL      0.064074
     30 H10         1.5690    4.5340   -1.6730 hc        1 MOL      0.050013
     31 H11         2.2740    4.2570   -0.1170 hc        1 MOL      0.050013
     32 H12         3.2850    6.4160   -0.0130 hc        1 MOL      0.012497
     33 H13         2.3550    6.9090   -1.4520 hc        1 MOL      0.012497
     34 H14         3.4930    4.7690   -2.5200 hc        1 MOL      0.022055
     35 H15         4.5810    4.9960   -1.2220 hc        1 MOL      0.022055
     36 H16         5.2330    7.1000   -2.1410 hx        1 MOL      0.071505
     37 H17         3.7620    7.2270   -3.1490 hx        1 MOL      0.071505
     38 H18         5.9510    5.2110   -3.3870 hn        1 MOL      0.334636
     39 H19         4.8860    5.6270   -4.6290 hn        1 MOL      0.334636
     40 H20         6.0770    6.6020   -4.0810 hn        1 MOL      0.334636
     41 N4         -1.7930    4.7290   -0.9820 n         1 MOL     -0.477916
     42 C13        -2.9340    4.7690   -1.9990 c3        1 MOL      0.154421
     43 C14        -4.3130    4.5040   -1.4520 c         1 MOL      0.395811
     44 O6         -5.2970    4.8380   -2.0990 o         1 MOL     -0.533965
     45 C15        -2.6230    3.7250   -3.1600 c3        1 MOL     -0.251666
     46 C16        -2.2940    2.3590   -2.6100 c         1 MOL      0.795685
     47 O7         -3.0680    1.8510   -1.8060 o         1 MOL     -0.771120
     48 O8         -1.2220    1.7670   -2.7840 o         1 MOL     -0.771120
     49 H21        -1.7830    3.9880   -0.2930 hn        1 MOL      0.333220
     50 H22        -2.9840    5.7360   -2.5010 h1        1 MOL      0.095089
     51 H23        -1.7420    4.1470   -3.6410 hc        1 MOL      0.059404
     52 H24        -3.5110    3.6780   -3.7960 hc        1 MOL      0.059404
     53 N5         -4.3830    4.1060   -0.2060 n         1 MOL     -0.152437
     54 C17        -5.5310    3.6900    0.6490 c3        1 MOL     -0.277742
     55 C18        -6.2370    2.3550    0.3100 c         1 MOL      0.693973
     56 O9         -7.1110    1.9390    1.0210 o         1 MOL     -0.606540
     57 H25        -3.5270    3.7230    0.1580 hn        1 MOL      0.088361
     58 H26        -6.2560    4.4920    0.5430 h1        1 MOL      0.124203
     59 H27        -5.1670    3.5260    1.6660 h1        1 MOL      0.124203
     60 N6         -5.6810    1.6000   -0.6320 n         1 MOL     -0.496466
     61 C19        -6.3640    0.5060   -1.2950 c3        1 MOL     -0.051401
     62 C20        -6.5600   -0.7630   -0.4110 c         1 MOL      0.465584
     63 O10        -6.9770   -1.8120   -0.8620 o         1 MOL     -0.508596
     64 C21        -5.5310    0.1200   -2.5240 c3        1 MOL     -0.501211
     65 C22        -4.3550   -0.7250   -2.2470 c         1 MOL      0.682954
     66 N7         -3.8040   -1.1850   -3.3580 n         1 MOL     -0.677746
     67 O11        -3.8280   -0.9480   -1.1650 o         1 MOL     -0.554306
     68 H28        -4.8090    1.9080   -1.0310 hn        1 MOL      0.413270
     69 H29        -7.3070    0.9340   -1.6350 h1        1 MOL      0.153310
     70 H30        -5.3590    1.0790   -2.9990 hc        1 MOL      0.171397
     71 H31        -6.1950   -0.4540   -3.1800 hc        1 MOL      0.171397
     72 H32        -4.3130   -0.9950   -4.2110 hn        1 MOL      0.330021
     73 H33        -3.2000   -1.9680   -3.1800 hn        1 MOL      0.330021
     74 N8         -6.3360   -0.6880    0.9050 n         1 MOL     -0.271558
     75 C23        -6.7220   -1.6520    1.9740 c3        1 MOL     -0.204771
     76 C24        -5.6940   -2.7980    2.1610 c         1 MOL      0.432120
     77 O12        -5.9290   -3.6010    3.0990 o         1 MOL     -0.542331
     78 H34        -6.0070    0.1680    1.3240 hn        1 MOL      0.285083
     79 H35        -7.7180   -2.0850    1.8430 h1        1 MOL      0.139863
     80 H36        -6.7860   -1.1030    2.9160 h1        1 MOL      0.139863
     81 N9         -4.5340   -2.7360    1.4710 n         1 MOL     -0.186408
     82 C25        -3.3260   -3.5780    1.7090 c3        1 MOL      0.065852
     83 C26        -1.9160   -2.9490    1.4680 c         1 MOL      0.481533
     84 O13        -1.6860   -2.0970    0.5640 o         1 MOL     -0.541161
     85 C27        -3.4050   -4.9740    1.1190 c3        1 MOL     -0.112630
     86 C28        -3.6480   -4.9800   -0.3630 ca        1 MOL      0.039889
     87 C29        -2.6730   -4.8150   -1.3640 ca        1 MOL     -0.153675
     88 C30        -5.0190   -4.9600   -0.7880 ca        1 MOL     -0.153675
     89 C31        -3.0160   -4.7050   -2.7060 ca        1 MOL     -0.268037
     90 C32        -5.3380   -4.9980   -2.1510 ca        1 MOL     -0.268037
     91 C33        -4.3520   -4.8000   -3.1300 ca        1 MOL      0.379640
     92 O14        -4.6810   -4.7710   -4.4480 oh        1 MOL     -0.544969
     93 H37        -4.4810   -2.0950    0.6950 hn        1 MOL      0.215850
     94 H38        -3.4300   -3.6900    2.7850 h1        1 MOL      0.036948
     95 H39        -4.2670   -5.5180    1.4800 hc        1 MOL      0.057831
     96 H40        -2.5680   -5.6000    1.4260 hc        1 MOL      0.057831
     97 H41        -1.6260   -4.7230   -1.0980 ha        1 MOL      0.160186
     98 H42        -5.7900   -5.0320   -0.0430 ha        1 MOL      0.160186
     99 H43        -2.2510   -4.4780   -3.4400 ha        1 MOL      0.125974
    100 H44        -6.3700   -4.9960   -2.4900 ha        1 MOL      0.125974
    101 H45        -5.6340   -4.6640   -4.4600 ho        1 MOL      0.397718
    102 N10        -0.9320   -3.4910    2.2410 n         1 MOL     -0.413153
    103 C34         0.4690   -3.0420    2.1380 c3        1 MOL      0.121701
    104 C35         1.2150   -4.0820    1.2930 c         1 MOL      0.399501
    105 O15         1.1630   -5.3190    1.4960 o         1 MOL     -0.540673
    106 C36         1.1860   -2.8390    3.4880 c3        1 MOL      0.035141
    107 C37         0.3670   -1.9080    4.4960 c3        1 MOL     -0.258736
    108 C38         2.6430   -2.2990    3.3710 c3        1 MOL     -0.182225
    109 C39        -0.1830   -0.6030    3.8630 c3        1 MOL      0.202399
    110 H46        -1.1600   -4.2390    2.8920 hn        1 MOL      0.305368
    111 H47         0.5580   -2.0860    1.6340 h1        1 MOL      0.007662
    112 H48         1.2020   -3.7960    4.0110 hc        1 MOL      0.036222
    113 H49         0.9980   -1.6090    5.3330 hc        1 MOL      0.062738
    114 H50        -0.5140   -2.4270    4.8690 hc        1 MOL      0.062738
    115 H51         3.1760   -2.9880    2.7140 hc        1 MOL      0.018686
    116 H52         2.6980   -1.3320    2.8680 hc        1 MOL      0.018686
    117 H53         3.2290   -2.0590    4.2540 hc        1 MOL      0.018686
    118 H54        -0.7400   -0.1110    4.6660 hc        1 MOL     -0.016515
    119 H55         0.6190    0.0380    3.4890 hc        1 MOL     -0.016515
    120 H56        -0.9300   -0.7640    3.0880 hc        1 MOL     -0.016515
    121 N11         2.1050   -3.4730    0.4450 n         1 MOL     -0.126800
    122 C40         3.0150   -4.2280   -0.4410 c3        1 MOL      0.403461
    123 C41         4.4560   -3.6050   -0.4620 c         1 MOL      0.076201
    124 O16         4.7520   -2.4690   -0.0030 o         1 MOL     -0.245561
    125 C42         2.4420   -4.3200   -1.8350 c3        1 MOL      0.093440
    126 O17         1.0640   -3.9830   -1.9160 oh        1 MOL     -0.622981
    127 H57         2.0420   -2.5070    0.1740 hn        1 MOL      0.193435
    128 H58         3.1940   -5.2030    0.0090 h1        1 MOL     -0.019096
    129 H59         2.5910   -5.3400   -2.1700 h1        1 MOL      0.003384
    130 H60         3.0440   -3.6690   -2.4670 h1        1 MOL      0.003384
    131 H61         1.0930   -3.7050   -2.8390 ho        1 MOL      0.385480
    132 N12         5.4290   -4.4080   -0.8810 n         1 MOL     -0.350690
    133 C43         6.9040   -4.2140   -0.6420 c3        1 MOL      0.294544
    134 C44         7.4810   -2.8460   -0.8610 c         1 MOL      0.291160
    135 O18         8.2470   -2.3020   -0.0790 o         1 MOL     -0.493750
    136 C45         7.5650   -5.2450   -1.5250 c3        1 MOL     -0.605982
    137 H62         5.1340   -5.2370   -1.3780 hn        1 MOL      0.231888
    138 H63         7.1590   -4.5360    0.3650 h1        1 MOL      0.063280
    139 H64         8.6540   -5.1470   -1.5900 hc        1 MOL      0.175910
    140 H65         7.3760   -6.2180   -1.0710 hc        1 MOL      0.175910
    141 H66         7.2440   -5.1510   -2.5580 hc        1 MOL      0.175910
    142 N13         7.0270   -2.1130   -1.8570 n         1 MOL     -0.195282
    143 C46         7.6270   -0.8460   -2.3140 c3        1 MOL      0.168723
    144 C47         7.1050    0.2810   -1.4360 c         1 MOL      0.432022
    145 O19         7.7560    1.2510   -1.0830 o         1 MOL     -0.537281
    146 C48         7.4040   -0.6440   -3.8310 c3        1 MOL     -0.228626
    147 H67         6.4510   -2.5640   -2.5450 hn        1 MOL      0.187718
    148 H68         8.7110   -0.8400   -2.1550 h1        1 MOL      0.063444
    149 H69         6.3960   -0.2810   -3.9950 hc        1 MOL      0.057082
    150 H70         8.0750    0.1800   -4.1000 hc        1 MOL      0.057082
    151 H71         7.6320   -1.6100   -4.2840 hc        1 MOL      0.057082
    152 N14         5.8110    0.2210   -1.0450 n         1 MOL     -0.413864
    153 C49         5.2600    1.1660   -0.0990 c3        1 MOL      0.247151
    154 C50         5.6700    0.8690    1.3490 c         1 MOL      0.448544
    155 O20         5.8110    1.7440    2.1520 o         1 MOL     -0.547510
    156 C51         3.7580    1.3960   -0.2270 c3        1 MOL     -0.590609
    157 C52         2.8870    0.4880    0.6200 c3        1 MOL      0.011350
    158 C53         1.4710    0.4180    0.0890 c         1 MOL      0.704614
    159 O21         1.0070   -0.6810   -0.2960 o         1 MOL     -0.800331
    160 O22         0.7200    1.4030    0.1070 o         1 MOL     -0.800331
    161 H72         5.2230   -0.5450   -1.3440 hn        1 MOL      0.238259
    162 H73         5.7080    2.1380   -0.3150 h1        1 MOL      0.031143
    163 H74         3.4360    1.4280   -1.2740 hc        1 MOL      0.148169
    164 H75         3.6510    2.4160    0.1480 hc        1 MOL      0.148169
    165 H76         2.8130    0.9690    1.5970 hc        1 MOL      0.103686
    166 H77         3.3430   -0.4920    0.7350 hc        1 MOL      0.103686
    167 N15         5.9510   -0.4020    1.6860 n         1 MOL     -0.067548
    168 C54         6.6170   -0.7110    2.9500 c3        1 MOL     -0.397349
    169 H78         7.4980   -1.3240    2.7550 h1        1 MOL      0.147324
    170 H79         6.9210    0.2150    3.4380 h1        1 MOL      0.147324
    171 H80         5.9320   -1.2570    3.5990 h1        1 MOL      0.147324
    172 H81         5.8870   -1.1240    0.9830 hn        1 MOL      0.114426
    173 Ca1        -1.4470    0.1060   -0.7020 Ca        1 MOL      1.806951
    174 O23        -0.9810   -1.8630   -2.4820 oh        1 MOL     -0.875137
    175 H82        -0.5550   -1.8560   -3.3380 ho        1 MOL      0.425009
    176 H83        -0.7820   -2.7300   -2.1250 ho        1 MOL      0.425009
@<TRIPOS>BOND
     1    1    2 1   
     2    1    4 1   
     3    1    5 1   
     4    1    6 1   
     5    2    3 2   
     6    2    7 1   
     7    7    8 1   
     8    7   15 1   
     9    8    9 1   
    10    8   11 1   
    11    8   16 1   
    12    9   10 2   
    13    9   19 1   
    14   11   12 1   
    15   11   17 1   
    16   11   18 1   
    17   12   13 1   
    18   12   14 1   
    19   19   20 1   
    20   19   28 1   
    21   20   21 1   
    22   20   23 1   
    23   20   29 1   
    24   21   22 2   
    25   21   41 1   
    26   23   24 1   
    27   23   30 1   
    28   23   31 1   
    29   24   25 1   
    30   24   32 1   
    31   24   33 1   
    32   25   26 1   
    33   25   34 1   
    34   25   35 1   
    35   26   27 1   
    36   26   36 1   
    37   26   37 1   
    38   27   38 1   
    39   27   39 1   
    40   27   40 1   
    41   41   42 1   
    42   41   49 1   
    43   42   43 1   
    44   42   45 1   
    45   42   50 1   
    46   43   44 2   
    47   43   53 1   
    48   45   46 1   
    49   45   51 1   
    50   45   52 1   
    51   46   47 1   
    52   46   48 1   
    53   53   54 1   
    54   53   57 1   
    55   54   55 1   
    56   54   58 1   
    57   54   59 1   
    58   55   56 2   
    59   55   60 1   
    60   60   61 1   
    61   60   68 1   
    62   61   62 1   
    63   61   64 1   
    64   61   69 1   
    65   62   63 2   
    66   62   74 1   
    67   64   65 1   
    68   64   70 1   
    69   64   71 1   
    70   65   66 1   
    71   65   67 2   
    72   66   72 1   
    73   66   73 1   
    74   74   75 1   
    75   74   78 1   
    76   75   76 1   
    77   75   79 1   
    78   75   80 1   
    79   76   77 2   
    80   76   81 1   
    81   81   82 1   
    82   81   93 1   
    83   82   83 1   
    84   82   85 1   
    85   82   94 1   
    86   83   84 2   
    87   83  102 1   
    88   85   86 1   
    89   85   95 1   
    90   85   96 1   
    91   86   87 ar  
    92   86   88 ar  
    93   87   89 ar  
    94   87   97 1   
    95   88   90 ar  
    96   88   98 1   
    97   89   91 ar  
    98   89   99 1   
    99   90   91 ar  
   100   90  100 1   
   101   91   92 1   
   102   92  101 1   
   103  102  103 1   
   104  102  110 1   
   105  103  104 1   
   106  103  106 1   
   107  103  111 1   
   108  104  105 2   
   109  104  121 1   
   110  106  107 1   
   111  106  108 1   
   112  106  112 1   
   113  107  109 1   
   114  107  113 1   
   115  107  114 1   
   116  108  115 1   
   117  108  116 1   
   118  108  117 1   
   119  109  118 1   
   120  109  119 1   
   121  109  120 1   
   122  121  122 1   
   123  121  127 1   
   124  122  123 1   
   125  122  125 1   
   126  122  128 1   
   127  123  124 2   
   128  123  132 1   
   129  125  126 1   
   130  125  129 1   
   131  125  130 1   
   132  126  131 1   
   133  132  133 1   
   134  132  137 1   
   135  133  134 1   
   136  133  136 1   
   137  133  138 1   
   138  134  135 2   
   139  134  142 1   
   140  136  139 1   
   141  136  140 1   
   142  136  141 1   
   143  142  143 1   
   144  142  147 1   
   145  143  144 1   
   146  143  146 1   
   147  143  148 1   
   148  144  145 2   
   149  144  152 1   
   150  146  149 1   
   151  146  150 1   
   152  146  151 1   
   153  152  153 1   
   154  152  161 1   
   155  153  154 1   
   156  153  156 1   
   157  153  162 1   
   158  154  155 2   
   159  154  167 1   
   160  156  157 1   
   161  156  163 1   
   162  156  164 1   
   163  157  158 1   
   164  157  165 1   
   165  157  166 1   
   166  158  159 1   
   167  158  160 1   
   168  167  168 1   
   169  167  172 1   
   170  168  169 1   
   171  168  170 1   
   172  168  171 1   
   173  174  175 1   
   174  174  176 1   
@<TRIPOS>SUBSTRUCTURE
     1 MOL         1 TEMP              0 ****  ****    0 ROOT
