@<TRIPOS>MOLECULE
MOL
  183   181     1     0     0
SMALL
resp


@<TRIPOS>ATOM
      1 C1          0.6000   -2.4990    6.3710 c3        1 MOL     -0.344401
      2 C2          0.9110   -2.2270    4.8210 c         1 MOL      0.759732
      3 O1         -0.0380   -2.1830    4.0000 o         1 MOL     -0.606508
      4 H1         -0.2800   -3.1360    6.4580 hc        1 MOL      0.079903
      5 H2          1.4540   -2.9960    6.8310 hc        1 MOL      0.079903
      6 H3          0.4150   -1.5520    6.8760 hc        1 MOL      0.079903
      7 N1          2.1620   -1.9690    4.4660 n         1 MOL     -0.678671
      8 C3          2.6310   -1.8440    3.0610 c3        1 MOL      0.036820
      9 C4          3.1520   -3.1710    2.5450 c         1 MOL      0.694425
     10 O2          3.9540   -3.7540    3.2930 o         1 MOL     -0.593395
     11 C5          3.7680   -0.8550    3.0180 c3        1 MOL      0.013420
     12 C6          4.3550   -0.6060    1.6470 c         1 MOL      0.781600
     13 O3          3.5930   -0.8970    0.6790 o         1 MOL     -0.797479
     14 O4          5.5010   -0.1420    1.4430 o         1 MOL     -0.797479
     15 H4          2.8590   -1.9550    5.2080 hn        1 MOL      0.339257
     16 H5          1.8390   -1.4300    2.4360 h1        1 MOL      0.044859
     17 H6          4.5790   -1.1140    3.7120 hc        1 MOL      0.000517
     18 H7          3.3940    0.0930    3.4010 hc        1 MOL      0.000517
     19 N2          2.7830   -3.5500    1.3050 n         1 MOL     -0.552425
     20 C7          3.0710   -4.8850    0.7840 c3        1 MOL      0.104520
     21 C8          4.3460   -4.9640   -0.0430 c         1 MOL      0.435137
     22 O5          5.1120   -5.9470    0.0920 o         1 MOL     -0.569761
     23 C9          1.9120   -5.6370    0.0160 c3        1 MOL      0.319291
     24 C10         0.5060   -5.4240    0.6780 c3        1 MOL      0.158113
     25 C11         2.1790   -7.1510   -0.0710 c3        1 MOL     -0.423272
     26 C12        -0.7150   -6.1020    0.0420 c3        1 MOL     -0.215699
     27 H8          2.2450   -2.9440    0.7110 hn        1 MOL      0.312326
     28 H9          3.2550   -5.5240    1.6430 h1        1 MOL      0.024317
     29 H10         1.8710   -5.2440   -1.0010 hc        1 MOL     -0.020370
     30 H11         0.2650   -4.3650    0.7180 hc        1 MOL     -0.060071
     31 H12         0.6520   -5.7650    1.7050 hc        1 MOL     -0.060071
     32 H13         2.9150   -7.4040   -0.8420 hc        1 MOL      0.080635
     33 H14         2.6190   -7.5320    0.8450 hc        1 MOL      0.080635
     34 H15         1.3270   -7.7820   -0.2900 hc        1 MOL      0.080635
     35 H16        -0.5590   -7.1700   -0.0850 hc        1 MOL      0.042076
     36 H17        -1.6580   -5.8350    0.5080 hc        1 MOL      0.042076
     37 H18        -0.7180   -5.7240   -0.9890 hc        1 MOL      0.042076
     38 N3          4.5710   -3.8750   -0.8580 n         1 MOL     -0.196394
     39 C13         5.5800   -3.7740   -1.8750 c3        1 MOL     -0.059505
     40 C14         6.7030   -2.8130   -1.5740 c         1 MOL      0.407282
     41 O6          7.7400   -2.8820   -2.2570 o         1 MOL     -0.529580
     42 C15         4.9380   -3.5800   -3.3300 c3        1 MOL     -0.258643
     43 C16         3.8690   -2.4630   -3.5530 c         1 MOL      0.812553
     44 O7          3.3860   -2.3650   -4.6800 o         1 MOL     -0.720945
     45 O8          3.3900   -1.7630   -2.6110 o         1 MOL     -0.720945
     46 H19         3.7670   -3.2600   -0.7950 hn        1 MOL      0.145352
     47 H20         6.1150   -4.7180   -1.9690 h1        1 MOL      0.109295
     48 H21         4.4570   -4.5080   -3.6430 hc        1 MOL      0.058999
     49 H22         5.7380   -3.3080   -4.0260 hc        1 MOL      0.058999
     50 N4          6.7310   -2.1670   -0.4090 n         1 MOL     -0.223620
     51 C17         7.8200   -1.3800   -0.0550 c3        1 MOL     -0.027528
     52 C18         8.1090   -0.0610   -0.7420 c         1 MOL      0.307357
     53 O9          9.2630    0.2510   -0.9080 o         1 MOL     -0.548006
     54 H23         5.9370   -2.3520    0.1840 hn        1 MOL      0.230058
     55 H24         8.6880   -2.0370    0.0060 h1        1 MOL      0.066629
     56 H25         7.6730   -1.2120    1.0150 h1        1 MOL      0.066629
     57 N5          7.0850    0.5450   -1.2700 n         1 MOL      0.042269
     58 C19         7.2060    1.8700   -1.8020 c3        1 MOL     -0.011764
     59 C20         7.0600    2.9230   -0.7290 c         1 MOL      0.495531
     60 O10         7.4010    4.0520   -1.0210 o         1 MOL     -0.574947
     61 C21         6.0910    2.1110   -2.8380 c3        1 MOL     -0.233897
     62 C22         4.6560    1.7640   -2.4560 c         1 MOL      0.760422
     63 O11         3.9720    0.9520   -3.1000 o         1 MOL     -0.750978
     64 O12         4.2110    2.1290   -1.3590 o         1 MOL     -0.750978
     65 H26         6.1680    0.2320   -0.9870 hn        1 MOL      0.053323
     66 H27         8.1800    2.1100   -2.2450 h1        1 MOL      0.083489
     67 H28         6.2570    1.3600   -3.6010 hc        1 MOL      0.054334
     68 H29         6.0790    3.1270   -3.2400 hc        1 MOL      0.054334
     69 N6          6.6040    2.5500    0.4750 n         1 MOL     -0.386639
     70 C23         6.4600    3.4410    1.6030 c3        1 MOL      0.015090
     71 C24         5.1280    4.0630    1.9900 c         1 MOL      0.450968
     72 O13         4.9730    4.7340    3.0060 o         1 MOL     -0.595320
     73 H30         6.4560    1.5550    0.5820 hn        1 MOL      0.328733
     74 H31         7.0900    4.3110    1.4030 h1        1 MOL      0.060859
     75 H32         6.9470    3.0730    2.5060 h1        1 MOL      0.060859
     76 N7          4.0360    3.8830    1.2340 n         1 MOL     -0.233505
     77 C25         2.7160    4.4250    1.3770 c3        1 MOL     -0.004125
     78 C26         1.6440    3.3070    1.1920 c         1 MOL      0.430972
     79 O14         1.7570    2.4830    0.2900 o         1 MOL     -0.635981
     80 C27         2.4510    5.4260    0.2850 c3        1 MOL      0.010246
     81 C28         3.1450    6.7510    0.4920 c3        1 MOL     -0.365648
     82 C29         2.7300    7.8020   -0.5590 c         1 MOL      0.687477
     83 N8          3.2170    7.7670   -1.7720 n         1 MOL     -0.811207
     84 O15         1.8840    8.6930   -0.3590 o         1 MOL     -0.591854
     85 H33         4.1130    3.2220    0.4750 hn        1 MOL      0.247852
     86 H34         2.5800    4.9080    2.3440 h1        1 MOL      0.079701
     87 H35         1.3640    5.5850    0.2690 hc        1 MOL      0.048877
     88 H36         2.7870    4.8890   -0.6010 hc        1 MOL      0.048877
     89 H37         4.2060    6.6440    0.2770 hc        1 MOL      0.118429
     90 H38         2.9910    7.0940    1.5180 hc        1 MOL      0.118429
     91 H39         3.7370    6.9640   -2.0980 hn        1 MOL      0.367966
     92 H40         2.9970    8.4510   -2.4860 hn        1 MOL      0.367966
     93 N9          0.7140    3.2800    2.0680 n         1 MOL     -0.255854
     94 C30        -0.4760    2.3680    2.1760 c3        1 MOL     -0.028099
     95 C31        -1.6410    2.8550    1.3140 c         1 MOL      0.368080
     96 O16        -2.1170    3.9990    1.5150 o         1 MOL     -0.595084
     97 C32        -0.9280    2.2180    3.6370 c3        1 MOL      0.259583
     98 C33        -2.1270    1.2840    3.7220 c3        1 MOL     -0.274117
     99 C34         0.2500    1.6630    4.4200 c3        1 MOL     -0.274117
    100 H41         0.6590    4.0960    2.6620 hn        1 MOL      0.225432
    101 H42        -0.1690    1.3850    1.8130 h1        1 MOL      0.144224
    102 H43        -1.1460    3.1890    4.0850 hc        1 MOL     -0.025135
    103 H44        -1.8780    0.3380    3.2510 hc        1 MOL      0.055536
    104 H45        -2.3430    1.1870    4.7900 hc        1 MOL      0.055536
    105 H46        -3.0430    1.7190    3.3110 hc        1 MOL      0.055536
    106 H47         1.0140    2.4440    4.4820 hc        1 MOL      0.055536
    107 H48        -0.0610    1.3050    5.4070 hc        1 MOL      0.055536
    108 H49         0.7070    0.8370    3.8840 hc        1 MOL      0.055536
    109 N10        -2.0010    2.1530    0.3010 n         1 MOL     -0.084502
    110 C35        -3.1280    2.3550   -0.6150 c3        1 MOL      0.012332
    111 C36        -4.3910    1.7000   -0.0490 c         1 MOL      0.324033
    112 O17        -4.2530    0.8390    0.8320 o         1 MOL     -0.217452
    113 C37        -2.8210    1.7790   -2.0370 c3        1 MOL     -0.239538
    114 C38        -3.8370    2.1960   -3.0800 c         1 MOL      0.687425
    115 N11        -3.5960    3.3470   -3.6490 n         1 MOL     -0.776260
    116 O18        -4.8990    1.6100   -3.4500 o         1 MOL     -0.517459
    117 H50        -1.4440    1.3460    0.0760 hn        1 MOL      0.219883
    118 H51        -3.2580    3.4280   -0.7540 h1        1 MOL      0.050456
    119 H52        -2.8810    0.6870   -1.9620 hc        1 MOL      0.097022
    120 H53        -1.8160    2.0120   -2.3850 hc        1 MOL      0.097022
    121 H54        -2.6960    3.8050   -3.5430 hn        1 MOL      0.355633
    122 H55        -4.1960    3.6870   -4.3770 hn        1 MOL      0.355633
    123 N12        -5.5720    2.1540   -0.4700 n         1 MOL     -0.432245
    124 C39        -6.8260    1.6230   -0.0090 c3        1 MOL      0.164054
    125 C40        -6.9740    0.1100   -0.1650 c         1 MOL      0.539917
    126 O19        -7.5150   -0.5480    0.7730 o         1 MOL     -0.505904
    127 C41        -7.9270    2.4010   -0.6190 c3        1 MOL     -0.119463
    128 C42        -9.2520    1.8250   -0.2300 ca        1 MOL      0.025824
    129 C43        -9.8110    1.9210    1.0810 ca        1 MOL     -0.181680
    130 C44       -10.0940    1.2990   -1.2500 ca        1 MOL     -0.181680
    131 C45       -11.0260    1.3560    1.4390 ca        1 MOL     -0.274949
    132 C46       -11.3700    0.8280   -0.9420 ca        1 MOL     -0.274949
    133 C47       -11.7770    0.8090    0.4040 ca        1 MOL      0.391114
    134 O20       -12.9670    0.2410    0.6290 oh        1 MOL     -0.518837
    135 H56        -5.6810    2.8550   -1.1880 hn        1 MOL      0.268523
    136 H57        -6.8330    1.8590    1.0500 h1        1 MOL      0.033971
    137 H58        -7.8890    2.4130   -1.7060 hc        1 MOL      0.058238
    138 H59        -7.9410    3.4660   -0.4050 hc        1 MOL      0.058238
    139 H60        -9.2090    2.4150    1.8390 ha        1 MOL      0.138374
    140 H61        -9.6920    1.2590   -2.2520 ha        1 MOL      0.138374
    141 H62       -11.3470    1.3780    2.4690 ha        1 MOL      0.155641
    142 H63       -12.0060    0.3970   -1.6990 ha        1 MOL      0.155641
    143 H64       -13.4550    0.0180   -0.1690 ho        1 MOL      0.353752
    144 N13        -6.5230   -0.4630   -1.3130 n         1 MOL     -0.290495
    145 C48        -6.5130   -1.9230   -1.4340 c3        1 MOL     -0.020270
    146 C49        -5.4790   -2.6420   -0.4250 c         1 MOL      0.392016
    147 O21        -5.6450   -3.8010   -0.2030 o         1 MOL     -0.528972
    148 C50        -6.2550   -2.4070   -2.8480 c3        1 MOL      0.023262
    149 C51        -4.9350   -1.9230   -3.4320 c3        1 MOL     -0.079958
    150 C52        -4.8560   -1.9670   -4.9970 c         1 MOL      0.633591
    151 O22        -3.9290   -2.6270   -5.5530 o         1 MOL     -0.718955
    152 O23        -5.5770   -1.2080   -5.6410 o         1 MOL     -0.718955
    153 H65        -6.0380    0.0840   -2.0150 hn        1 MOL      0.188521
    154 H66        -7.5040   -2.2660   -1.1470 h1        1 MOL      0.058639
    155 H67        -7.1090   -2.0950   -3.4500 hc        1 MOL      0.000927
    156 H68        -6.2120   -3.4970   -2.8230 hc        1 MOL      0.000927
    157 H69        -4.0770   -2.4620   -3.0210 hc        1 MOL     -0.001512
    158 H70        -4.7120   -0.8880   -3.1820 hc        1 MOL     -0.001512
    159 N14        -4.5460   -1.9520    0.2330 n         1 MOL     -0.047709
    160 C53        -3.5220   -2.5500    1.2340 c3        1 MOL     -0.080430
    161 C54        -4.1860   -2.3220    2.6210 c         1 MOL      0.411908
    162 O24        -4.1620   -3.2960    3.3990 o         1 MOL     -0.539414
    163 C55        -2.1650   -1.8620    1.2240 c3        1 MOL      0.184667
    164 C56        -1.5560   -1.9310   -0.2070 c3        1 MOL     -0.194274
    165 C57        -0.1500   -1.2840   -0.3270 c         1 MOL      0.849536
    166 O25         0.9190   -1.9730   -0.5770 o         1 MOL     -0.812081
    167 O26        -0.0620   -0.0430   -0.2290 o         1 MOL     -0.812081
    168 H71        -4.6040   -0.9480    0.1810 hn        1 MOL     -0.047931
    169 H72        -3.4620   -3.6020    0.9550 h1        1 MOL      0.132350
    170 H73        -1.6050   -2.4220    1.9660 hc        1 MOL      0.021150
    171 H74        -2.2190   -0.8180    1.5040 hc        1 MOL      0.021150
    172 H75        -2.2540   -1.3490   -0.8070 hc        1 MOL      0.029445
    173 H76        -1.5020   -2.9770   -0.5010 hc        1 MOL      0.029445
    174 N15        -4.8890   -1.1460    2.8790 n         1 MOL     -0.127488
    175 C58        -5.7330   -0.8520    4.0770 c3        1 MOL     -0.158859
    176 H77        -5.7180   -1.7090    4.7510 h1        1 MOL      0.072145
    177 H78        -5.3380    0.0220    4.5950 h1        1 MOL      0.072145
    178 H79        -6.7570   -0.6560    3.7620 h1        1 MOL      0.072145
    179 H80        -4.8150   -0.4730    2.1340 hn        1 MOL      0.043384
    180 Ca1         2.4030    0.1540   -1.2660 Ca        1 MOL      1.803217
    181 O27         0.8210    0.4330   -3.4300 oh        1 MOL     -0.925458
    182 H81         1.2920    0.7990   -4.1650 ho        1 MOL      0.450120
    183 H82         0.1450   -0.1190   -3.8180 ho        1 MOL      0.450120
@<TRIPOS>BOND
     1    1    2 1   
     2    1    4 1   
     3    1    5 1   
     4    1    6 1   
     5    2    3 2   
     6    2    7 1   
     7    7    8 1   
     8    7   15 1   
     9    8    9 1   
    10    8   11 1   
    11    8   16 1   
    12    9   10 2   
    13    9   19 1   
    14   11   12 1   
    15   11   17 1   
    16   11   18 1   
    17   12   13 1   
    18   12   14 1   
    19   19   20 1   
    20   19   27 1   
    21   20   21 1   
    22   20   23 1   
    23   20   28 1   
    24   21   22 2   
    25   21   38 1   
    26   23   24 1   
    27   23   25 1   
    28   23   29 1   
    29   24   26 1   
    30   24   30 1   
    31   24   31 1   
    32   25   32 1   
    33   25   33 1   
    34   25   34 1   
    35   26   35 1   
    36   26   36 1   
    37   26   37 1   
    38   38   39 1   
    39   38   46 1   
    40   39   40 1   
    41   39   42 1   
    42   39   47 1   
    43   40   41 2   
    44   40   50 1   
    45   42   43 1   
    46   42   48 1   
    47   42   49 1   
    48   43   44 1   
    49   43   45 1   
    50   50   51 1   
    51   50   54 1   
    52   51   52 1   
    53   51   55 1   
    54   51   56 1   
    55   52   53 2   
    56   52   57 1   
    57   57   58 1   
    58   57   65 1   
    59   58   59 1   
    60   58   61 1   
    61   58   66 1   
    62   59   60 2   
    63   59   69 1   
    64   61   62 1   
    65   61   67 1   
    66   61   68 1   
    67   62   63 1   
    68   62   64 1   
    69   69   70 1   
    70   69   73 1   
    71   70   71 1   
    72   70   74 1   
    73   70   75 1   
    74   71   72 2   
    75   71   76 1   
    76   76   77 1   
    77   76   85 1   
    78   77   78 1   
    79   77   80 1   
    80   77   86 1   
    81   78   79 2   
    82   78   93 1   
    83   80   81 1   
    84   80   87 1   
    85   80   88 1   
    86   81   82 1   
    87   81   89 1   
    88   81   90 1   
    89   82   83 1   
    90   82   84 2   
    91   83   91 1   
    92   83   92 1   
    93   93   94 1   
    94   93  100 1   
    95   94   95 1   
    96   94   97 1   
    97   94  101 1   
    98   95   96 2   
    99   95  109 1   
   100   97   98 1   
   101   97   99 1   
   102   97  102 1   
   103   98  103 1   
   104   98  104 1   
   105   98  105 1   
   106   99  106 1   
   107   99  107 1   
   108   99  108 1   
   109  109  110 1   
   110  109  117 1   
   111  110  111 1   
   112  110  113 1   
   113  110  118 1   
   114  111  112 2   
   115  111  123 1   
   116  113  114 1   
   117  113  119 1   
   118  113  120 1   
   119  114  115 1   
   120  114  116 2   
   121  115  121 1   
   122  115  122 1   
   123  123  124 1   
   124  123  135 1   
   125  124  125 1   
   126  124  127 1   
   127  124  136 1   
   128  125  126 2   
   129  125  144 1   
   130  127  128 1   
   131  127  137 1   
   132  127  138 1   
   133  128  129 ar  
   134  128  130 ar  
   135  129  131 ar  
   136  129  139 1   
   137  130  132 ar  
   138  130  140 1   
   139  131  133 ar  
   140  131  141 1   
   141  132  133 ar  
   142  132  142 1   
   143  133  134 1   
   144  134  143 1   
   145  144  145 1   
   146  144  153 1   
   147  145  146 1   
   148  145  148 1   
   149  145  154 1   
   150  146  147 2   
   151  146  159 1   
   152  148  149 1   
   153  148  155 1   
   154  148  156 1   
   155  149  150 1   
   156  149  157 1   
   157  149  158 1   
   158  150  151 1   
   159  150  152 1   
   160  159  160 1   
   161  159  168 1   
   162  160  161 1   
   163  160  163 1   
   164  160  169 1   
   165  161  162 2   
   166  161  174 1   
   167  163  164 1   
   168  163  170 1   
   169  163  171 1   
   170  164  165 1   
   171  164  172 1   
   172  164  173 1   
   173  165  166 1   
   174  165  167 1   
   175  174  175 1   
   176  174  179 1   
   177  175  176 1   
   178  175  177 1   
   179  175  178 1   
   180  181  182 1   
   181  181  183 1   
@<TRIPOS>SUBSTRUCTURE
     1 MOL         1 TEMP              0 ****  ****    0 ROOT
