@<TRIPOS>MOLECULE
MOL
  179   176     1     0     0
SMALL
resp


@<TRIPOS>ATOM
      1 C1          1.4620    3.6480    6.4340 c3        1 MOL     -0.242237
      2 C2          1.4230    2.9610    5.0770 c         1 MOL      0.754517
      3 O1          2.4320    2.5810    4.4930 o         1 MOL     -0.600341
      4 H1          0.7640    4.4850    6.4380 hc        1 MOL      0.060321
      5 H2          1.1790    2.9370    7.2100 hc        1 MOL      0.060321
      6 H3          2.4700    4.0150    6.6270 hc        1 MOL      0.060321
      7 N1          0.2510    2.8490    4.4340 n         1 MOL     -0.598591
      8 C3         -0.0150    2.5250    2.9930 c3        1 MOL      0.002823
      9 C4          0.0180    3.8620    2.2230 c         1 MOL      0.584340
     10 O2         -0.3730    4.8920    2.7300 o         1 MOL     -0.536588
     11 C5         -1.4120    1.8730    2.9590 c3        1 MOL     -0.229860
     12 C6         -1.5920    1.1850    1.6080 c         1 MOL      0.541263
     13 O3         -0.5670    0.9420    0.9840 o         1 MOL     -0.633588
     14 O4         -2.7590    0.9740    1.1310 o         1 MOL     -0.633588
     15 H4         -0.5820    3.2680    4.8450 hn        1 MOL      0.297854
     16 H5          0.7320    1.8560    2.5620 h1        1 MOL      0.124627
     17 H6         -2.1240    2.6950    3.1070 hc        1 MOL      0.094200
     18 H7         -1.6410    1.3190    3.8680 hc        1 MOL      0.094200
     19 N2          0.3320    3.8100    0.9520 n         1 MOL     -0.257419
     20 C7          0.3560    5.0710    0.0760 c3        1 MOL     -0.239153
     21 C8         -1.0070    5.4400   -0.4130 c         1 MOL      0.574032
     22 O5         -1.3220    6.5680   -0.1220 o         1 MOL     -0.546056
     23 C9          1.3600    4.7120   -1.0500 c3        1 MOL      0.217264
     24 C10         2.0700    5.8810   -1.7280 c3        1 MOL     -0.127926
     25 C11         3.2910    5.3950   -2.5780 c3        1 MOL     -0.019969
     26 C12         2.7070    4.5430   -3.7600 c3        1 MOL     -0.055139
     27 N3          2.0020    5.3550   -4.7480 n4        1 MOL     -0.339154
     28 H8          0.6390    2.9170    0.6170 hn        1 MOL      0.127651
     29 H9          0.8020    5.8480    0.6960 h1        1 MOL      0.150344
     30 H10         0.8790    4.1990   -1.8860 hc        1 MOL     -0.015157
     31 H11         2.1020    4.0240   -0.6550 hc        1 MOL     -0.015157
     32 H12         2.4720    6.5030   -0.9310 hc        1 MOL      0.030780
     33 H13         1.4610    6.4800   -2.3910 hc        1 MOL      0.030780
     34 H14         3.9390    4.7370   -2.0020 hc        1 MOL      0.063246
     35 H15         3.7640    6.2960   -2.9640 hc        1 MOL      0.063246
     36 H16         2.1810    3.6390   -3.4520 hx        1 MOL      0.094676
     37 H17         3.6580    4.3320   -4.2530 hx        1 MOL      0.094676
     38 H18         1.8760    4.8650   -5.6190 hn        1 MOL      0.324443
     39 H19         1.1050    5.4840   -4.3030 hn        1 MOL      0.324443
     40 H20         2.4130    6.2590   -4.9000 hn        1 MOL      0.324443
     41 N4         -1.6610    4.6070   -1.1570 n         1 MOL     -0.407815
     42 C13        -2.9620    4.9160   -1.6980 c3        1 MOL      0.007533
     43 C14        -4.0510    4.6080   -0.6740 c         1 MOL      0.469431
     44 O6         -5.0970    5.2760   -0.7070 o         1 MOL     -0.560296
     45 C15        -3.1390    4.1510   -2.9770 c3        1 MOL     -0.202475
     46 C16        -2.7430    2.6660   -2.9730 c         1 MOL      0.605180
     47 O7         -2.5940    2.0630   -4.0670 o         1 MOL     -0.654035
     48 O8         -2.4310    2.1740   -1.8610 o         1 MOL     -0.654035
     49 H21        -1.1400    3.7560   -1.3100 hn        1 MOL      0.333389
     50 H22        -2.9710    5.9710   -1.9790 h1        1 MOL      0.092967
     51 H23        -2.5790    4.6510   -3.7800 hc        1 MOL      0.071802
     52 H24        -4.1570    4.2050   -3.3720 hc        1 MOL      0.071802
     53 N5         -3.8970    3.5540    0.1340 n         1 MOL     -0.091299
     54 C17        -4.7010    3.1030    1.2710 c3        1 MOL     -0.170446
     55 C18        -5.7510    2.0970    0.8960 c         1 MOL      0.555391
     56 O9         -6.7500    1.9530    1.5780 o         1 MOL     -0.552054
     57 H25        -3.1240    2.9190   -0.0160 hn        1 MOL      0.117955
     58 H26        -5.0830    3.9890    1.7840 h1        1 MOL      0.095195
     59 H27        -4.0480    2.7300    2.0620 h1        1 MOL      0.095195
     60 N6         -5.5290    1.4160   -0.2540 n         1 MOL     -0.250374
     61 C19        -6.5390    0.5500   -0.8410 c3        1 MOL      0.002569
     62 C20        -7.0640   -0.6260    0.0390 c         1 MOL      0.422866
     63 O10        -8.2040   -1.0220   -0.1450 o         1 MOL     -0.518468
     64 C21        -6.0790   -0.0060   -2.2420 c3        1 MOL     -0.382613
     65 C22        -5.1290   -1.1360   -1.9910 c         1 MOL      0.690954
     66 N7         -5.4590   -2.4050   -2.2950 n         1 MOL     -0.819206
     67 O11        -4.0240   -0.8840   -1.4250 o         1 MOL     -0.584202
     68 H28        -4.6160    1.4520   -0.6780 hn        1 MOL      0.133565
     69 H29        -7.3870    1.2170   -0.9920 h1        1 MOL      0.119939
     70 H30        -5.6770    0.7990   -2.8540 hc        1 MOL      0.150474
     71 H31        -6.8590   -0.4950   -2.8270 hc        1 MOL      0.150474
     72 H32        -6.3540   -2.5390   -2.7490 hn        1 MOL      0.381716
     73 H33        -4.6940   -3.0400   -2.4230 hn        1 MOL      0.381716
     74 N8         -6.3080   -1.0460    1.1110 n         1 MOL     -0.027599
     75 C23        -6.5960   -2.1010    2.0450 c3        1 MOL     -0.364239
     76 C24        -5.3710   -3.1140    2.2880 c         1 MOL      0.570638
     77 O12        -5.4830   -4.0520    3.0910 o         1 MOL     -0.554128
     78 H34        -5.4720   -0.4850    1.2640 hn        1 MOL      0.175155
     79 H35        -7.5350   -2.5800    1.7570 h1        1 MOL      0.155079
     80 H36        -6.6560   -1.5770    2.9980 h1        1 MOL      0.155079
     81 N9         -4.1880   -2.9350    1.7030 n         1 MOL     -0.280292
     82 C25        -2.9830   -3.6660    1.9970 c3        1 MOL      0.037140
     83 C26        -1.7790   -2.8470    1.6590 c         1 MOL      0.523965
     84 O13        -1.9050   -2.0600    0.7130 o         1 MOL     -0.492509
     85 C27        -2.9830   -5.0900    1.4040 c3        1 MOL     -0.129121
     86 C28        -3.0170   -5.2120   -0.1250 ca        1 MOL     -0.016342
     87 C29        -1.8230   -5.3170   -0.8540 ca        1 MOL     -0.065643
     88 C30        -4.2080   -5.4100   -0.8320 ca        1 MOL     -0.065643
     89 C31        -1.8400   -5.7620   -2.1700 ca        1 MOL     -0.249599
     90 C32        -4.2570   -5.8940   -2.1150 ca        1 MOL     -0.249599
     91 C33        -3.0900   -5.9860   -2.8520 ca        1 MOL      0.315886
     92 O14        -3.1040   -6.4360   -4.1250 oh        1 MOL     -0.526663
     93 H37        -4.1060   -2.2530    0.9590 hn        1 MOL      0.111914
     94 H38        -3.0230   -3.7450    3.0840 h1        1 MOL      0.064868
     95 H39        -3.9340   -5.4580    1.7810 hc        1 MOL      0.080351
     96 H40        -2.2980   -5.7510    1.9310 hc        1 MOL      0.080351
     97 H41        -0.9090   -5.0260   -0.3640 ha        1 MOL      0.100423
     98 H42        -5.1390   -5.3560   -0.2810 ha        1 MOL      0.100423
     99 H43        -0.9350   -5.9510   -2.7290 ha        1 MOL      0.132919
    100 H44        -5.2270   -6.0720   -2.5660 ha        1 MOL      0.132919
    101 H45        -3.9140   -6.6290   -4.5950 ho        1 MOL      0.396671
    102 N10        -0.6380   -3.1320    2.3170 n         1 MOL     -0.518533
    103 C34         0.6820   -2.4660    2.0860 c3        1 MOL      0.095799
    104 C35         1.6500   -3.3030    1.2600 c         1 MOL      0.577090
    105 O15         1.9260   -4.3960    1.6890 o         1 MOL     -0.580635
    106 C36         1.2520   -2.2180    3.4940 c3        1 MOL      0.090444
    107 C37         0.4610   -1.0510    4.2200 c3        1 MOL     -0.045392
    108 C38         2.7090   -1.7810    3.5120 c3        1 MOL     -0.217000
    109 C39         0.4040   -1.1840    5.7940 c3        1 MOL     -0.291368
    110 H46        -0.7610   -3.7260    3.1240 hn        1 MOL      0.301193
    111 H47         0.4940   -1.5450    1.5390 h1        1 MOL      0.042320
    112 H48         1.1430   -3.1600    4.0210 hc        1 MOL      0.029833
    113 H49        -0.5050   -0.9380    3.7210 hc        1 MOL      0.045482
    114 H50         0.9870   -0.1480    3.8980 hc        1 MOL      0.045482
    115 H51         3.3830   -2.5870    3.2070 hc        1 MOL      0.048318
    116 H52         2.7900   -1.0290    2.7260 hc        1 MOL      0.048318
    117 H53         3.0240   -1.3210    4.4440 hc        1 MOL      0.048318
    118 H54        -0.0630   -2.1420    6.0070 hc        1 MOL      0.081545
    119 H55         1.3530   -1.0990    6.3310 hc        1 MOL      0.081545
    120 H56        -0.1600   -0.3000    6.1070 hc        1 MOL      0.081545
    121 N11         2.1250   -2.8420    0.1060 n         1 MOL     -0.297253
    122 C40         3.1480   -3.5900   -0.6360 c3        1 MOL      0.188575
    123 C41         4.5550   -3.2180   -0.1370 c         1 MOL      0.237948
    124 O16         4.7240   -2.2340    0.5830 o         1 MOL     -0.249803
    125 C42         3.2490   -3.2150   -2.1330 c3        1 MOL      0.284228
    126 O17         2.0370   -2.7690   -2.7420 oh        1 MOL     -0.594079
    127 H57         1.7830   -1.9320   -0.1580 hn        1 MOL      0.115134
    128 H58         2.9420   -4.6550   -0.5320 h1        1 MOL      0.035494
    129 H59         3.7100   -4.0660   -2.6480 h1        1 MOL     -0.015807
    130 H60         3.9050   -2.3530   -2.2010 h1        1 MOL     -0.015807
    131 H61         1.8510   -1.8660   -2.4860 ho        1 MOL      0.341606
    132 N12         5.5860   -3.8780   -0.6450 n         1 MOL     -0.463333
    133 C43         6.9810   -3.6340   -0.1260 c3        1 MOL      0.331028
    134 C44         7.5920   -2.2350   -0.3790 c         1 MOL      0.347128
    135 O18         8.1380   -1.6600    0.5580 o         1 MOL     -0.485083
    136 C45         7.7600   -4.8130   -0.6030 c3        1 MOL     -0.488958
    137 H62         5.3680   -4.6290   -1.2940 hn        1 MOL      0.272248
    138 H63         6.8980   -3.7380    0.9550 h1        1 MOL      0.060162
    139 H64         7.4700   -5.0740   -1.6240 hc        1 MOL      0.136626
    140 H65         8.8290   -4.5820   -0.5890 hc        1 MOL      0.136626
    141 H66         7.5800   -5.6600    0.0570 hc        1 MOL      0.136626
    142 N13         7.3870   -1.6630   -1.5550 n         1 MOL     -0.263750
    143 C46         7.8890   -0.3560   -1.9710 c3        1 MOL      0.084710
    144 C47         7.0870    0.7950   -1.2720 c         1 MOL      0.427234
    145 O19         7.6080    1.8390   -0.8610 o         1 MOL     -0.484579
    146 C48         7.8400   -0.3560   -3.4910 c3        1 MOL     -0.238133
    147 H67         6.8770   -2.2610   -2.1850 hn        1 MOL      0.184117
    148 H68         8.8800   -0.0670   -1.6440 h1        1 MOL      0.092788
    149 H69         8.5360   -1.0350   -3.9710 hc        1 MOL      0.069591
    150 H70         6.8520   -0.5470   -3.9050 hc        1 MOL      0.069591
    151 H71         8.0930    0.6640   -3.7820 hc        1 MOL      0.069591
    152 N14         5.8120    0.5450   -1.1360 n         1 MOL     -0.322618
    153 C49         4.9350    1.3100   -0.2530 c3        1 MOL     -0.275530
    154 C50         5.3810    1.2940    1.2210 c         1 MOL      0.446596
    155 O20         5.3700    2.3440    1.7990 o         1 MOL     -0.518883
    156 C51         3.4020    0.8770   -0.3010 c3        1 MOL      0.075822
    157 C52         2.8320    0.9850   -1.7340 c3        1 MOL      0.126125
    158 C53         1.3250    0.6710   -1.6080 c         1 MOL      0.470974
    159 O21         0.4200    1.5210   -1.7480 o         1 MOL     -0.613865
    160 O22         1.0350   -0.5210   -1.3430 o         1 MOL     -0.613865
    161 H72         5.4920   -0.3550   -1.4670 hn        1 MOL      0.259109
    162 H73         4.9230    2.3460   -0.6110 h1        1 MOL      0.172905
    163 H74         2.7700    1.4580    0.3740 hc        1 MOL      0.041422
    164 H75         3.3450   -0.1210    0.1250 hc        1 MOL      0.041422
    165 H76         3.3600    0.3090   -2.4000 hc        1 MOL     -0.073000
    166 H77         2.8750    1.9500   -2.2490 hc        1 MOL     -0.073000
    167 N15         5.7680    0.1660    1.8170 n         1 MOL      0.066191
    168 C54         6.3590    0.0760    3.1350 c3        1 MOL     -0.267170
    169 H78         7.1960   -0.6230    3.1100 h1        1 MOL      0.105755
    170 H79         6.7160    1.0590    3.4420 h1        1 MOL      0.105755
    171 H80         5.6130   -0.2790    3.8460 h1        1 MOL      0.105755
    172 H81         5.6610   -0.6940    1.3060 hn        1 MOL     -0.019942
    173 Ca1        -1.5430   -0.1910   -1.0980 Ca        1 MOL      1.638237
    174 O23        -1.3550   -0.2500   -4.0310 oh        1 MOL     -0.795879
    175 H82        -1.5840    0.6750   -4.0610 ho        1 MOL      0.376176
    176 H83        -0.4040   -0.2650   -4.1230 ho        1 MOL      0.376176
    177 O24        -1.0050   -2.5460   -2.2050 oh        1 MOL     -0.795879
    178 H84        -1.5960   -2.7470   -2.9290 ho        1 MOL      0.376176
    179 H85        -0.1420   -2.8200   -2.5160 ho        1 MOL      0.376176
@<TRIPOS>BOND
     1    1    2 1   
     2    1    4 1   
     3    1    5 1   
     4    1    6 1   
     5    2    3 2   
     6    2    7 1   
     7    7    8 1   
     8    7   15 1   
     9    8    9 1   
    10    8   11 1   
    11    8   16 1   
    12    9   10 2   
    13    9   19 1   
    14   11   12 1   
    15   11   17 1   
    16   11   18 1   
    17   12   13 1   
    18   12   14 1   
    19   19   20 1   
    20   19   28 1   
    21   20   21 1   
    22   20   23 1   
    23   20   29 1   
    24   21   22 2   
    25   21   41 1   
    26   23   24 1   
    27   23   30 1   
    28   23   31 1   
    29   24   25 1   
    30   24   32 1   
    31   24   33 1   
    32   25   26 1   
    33   25   34 1   
    34   25   35 1   
    35   26   27 1   
    36   26   36 1   
    37   26   37 1   
    38   27   38 1   
    39   27   39 1   
    40   27   40 1   
    41   41   42 1   
    42   41   49 1   
    43   42   43 1   
    44   42   45 1   
    45   42   50 1   
    46   43   44 2   
    47   43   53 1   
    48   45   46 1   
    49   45   51 1   
    50   45   52 1   
    51   46   47 1   
    52   46   48 1   
    53   53   54 1   
    54   53   57 1   
    55   54   55 1   
    56   54   58 1   
    57   54   59 1   
    58   55   56 2   
    59   55   60 1   
    60   60   61 1   
    61   60   68 1   
    62   61   62 1   
    63   61   64 1   
    64   61   69 1   
    65   62   63 2   
    66   62   74 1   
    67   64   65 1   
    68   64   70 1   
    69   64   71 1   
    70   65   66 1   
    71   65   67 2   
    72   66   72 1   
    73   66   73 1   
    74   74   75 1   
    75   74   78 1   
    76   75   76 1   
    77   75   79 1   
    78   75   80 1   
    79   76   77 2   
    80   76   81 1   
    81   81   82 1   
    82   81   93 1   
    83   82   83 1   
    84   82   85 1   
    85   82   94 1   
    86   83   84 2   
    87   83  102 1   
    88   85   86 1   
    89   85   95 1   
    90   85   96 1   
    91   86   87 ar  
    92   86   88 ar  
    93   87   89 ar  
    94   87   97 1   
    95   88   90 ar  
    96   88   98 1   
    97   89   91 ar  
    98   89   99 1   
    99   90   91 ar  
   100   90  100 1   
   101   91   92 1   
   102   92  101 1   
   103  102  103 1   
   104  102  110 1   
   105  103  104 1   
   106  103  106 1   
   107  103  111 1   
   108  104  105 2   
   109  104  121 1   
   110  106  107 1   
   111  106  108 1   
   112  106  112 1   
   113  107  109 1   
   114  107  113 1   
   115  107  114 1   
   116  108  115 1   
   117  108  116 1   
   118  108  117 1   
   119  109  118 1   
   120  109  119 1   
   121  109  120 1   
   122  121  122 1   
   123  121  127 1   
   124  122  123 1   
   125  122  125 1   
   126  122  128 1   
   127  123  124 2   
   128  123  132 1   
   129  125  126 1   
   130  125  129 1   
   131  125  130 1   
   132  126  131 1   
   133  132  133 1   
   134  132  137 1   
   135  133  134 1   
   136  133  136 1   
   137  133  138 1   
   138  134  135 2   
   139  134  142 1   
   140  136  139 1   
   141  136  140 1   
   142  136  141 1   
   143  142  143 1   
   144  142  147 1   
   145  143  144 1   
   146  143  146 1   
   147  143  148 1   
   148  144  145 2   
   149  144  152 1   
   150  146  149 1   
   151  146  150 1   
   152  146  151 1   
   153  152  153 1   
   154  152  161 1   
   155  153  154 1   
   156  153  156 1   
   157  153  162 1   
   158  154  155 2   
   159  154  167 1   
   160  156  157 1   
   161  156  163 1   
   162  156  164 1   
   163  157  158 1   
   164  157  165 1   
   165  157  166 1   
   166  158  159 1   
   167  158  160 1   
   168  167  168 1   
   169  167  172 1   
   170  168  169 1   
   171  168  170 1   
   172  168  171 1   
   173  174  175 1   
   174  174  176 1   
   175  177  178 1   
   176  177  179 1   
@<TRIPOS>SUBSTRUCTURE
     1 MOL         1 TEMP              0 ****  ****    0 ROOT
