@<TRIPOS>MOLECULE
MOL
  179   176     1     0     0
SMALL
resp


@<TRIPOS>ATOM
      1 C1          1.5910    4.0780    3.8690 c3        1 MOL     -0.242816
      2 C2          0.7440    3.4550    2.7900 c         1 MOL      0.609758
      3 O1          1.2940    3.3830    1.6620 o         1 MOL     -0.558439
      4 H1          2.1420    3.2970    4.3940 hc        1 MOL      0.055665
      5 H2          2.2950    4.7780    3.4190 hc        1 MOL      0.055665
      6 H3          0.9510    4.6080    4.5740 hc        1 MOL      0.055665
      7 N1         -0.5480    3.2410    2.9600 n         1 MOL     -0.703124
      8 C3         -1.3800    2.5750    1.9640 c3        1 MOL      0.372817
      9 C4         -2.0190    3.7550    1.1830 c         1 MOL      0.588691
     10 O2         -3.1510    4.0720    1.3510 o         1 MOL     -0.523259
     11 C5         -2.2570    1.5760    2.6870 c3        1 MOL     -0.159272
     12 C6         -3.1950    0.9700    1.6550 c         1 MOL      0.672443
     13 O3         -4.2700    0.4820    2.0980 o         1 MOL     -0.662641
     14 O4         -2.8550    0.9140    0.4930 o         1 MOL     -0.662641
     15 H4         -0.9520    3.2980    3.8800 hn        1 MOL      0.364493
     16 H5         -0.7450    1.9810    1.3050 h1        1 MOL     -0.108371
     17 H6         -2.7930    2.1690    3.4270 hc        1 MOL      0.025605
     18 H7         -1.6680    0.8400    3.2370 hc        1 MOL      0.025605
     19 N2         -1.2610    4.4540    0.2500 n         1 MOL     -0.477109
     20 C7         -1.5850    5.6970   -0.4250 c3        1 MOL     -0.062610
     21 C8         -2.4620    5.4870   -1.6930 c         1 MOL      0.596658
     22 O5         -2.5500    6.3360   -2.5570 o         1 MOL     -0.555106
     23 C9         -0.3420    6.5320   -0.8220 c3        1 MOL      0.069925
     24 C10         0.5200    7.1560    0.3130 c3        1 MOL     -0.090271
     25 C11         1.4420    8.2500   -0.3030 c3        1 MOL      0.108764
     26 C12         2.3100    8.8180    0.7950 c3        1 MOL     -0.230086
     27 N3          3.2600    7.8140    1.3050 n4        1 MOL     -0.260555
     28 H8         -0.3180    4.1330    0.1290 hn        1 MOL      0.338046
     29 H9         -2.1320    6.4040    0.1920 h1        1 MOL      0.075453
     30 H10        -0.6270    7.2970   -1.5480 hc        1 MOL      0.016565
     31 H11         0.2300    5.8160   -1.4010 hc        1 MOL      0.016565
     32 H12         1.1380    6.3540    0.7170 hc        1 MOL      0.029279
     33 H13        -0.1150    7.6710    1.0390 hc        1 MOL      0.029279
     34 H14         0.8610    9.0370   -0.7670 hc        1 MOL      0.027478
     35 H15         2.0440    7.7810   -1.0790 hc        1 MOL      0.027478
     36 H16         1.5750    9.1520    1.5320 hx        1 MOL      0.142618
     37 H17         2.9150    9.6390    0.4250 hx        1 MOL      0.142618
     38 H18         4.0390    7.5850    0.6930 hn        1 MOL      0.318173
     39 H19         3.7270    8.1470    2.1320 hn        1 MOL      0.318173
     40 H20         2.6900    7.0320    1.5850 hn        1 MOL      0.318173
     41 N4         -3.1590    4.3750   -1.6520 n         1 MOL     -0.406136
     42 C13        -4.1810    3.8990   -2.6890 c3        1 MOL      0.188288
     43 C14        -5.3780    3.3060   -1.8890 c         1 MOL      0.340699
     44 O6         -6.5610    3.5100   -2.2670 o         1 MOL     -0.535005
     45 C15        -3.5510    2.8950   -3.6320 c3        1 MOL     -0.156911
     46 C16        -2.7700    1.7620   -2.8890 c         1 MOL      0.578927
     47 O7         -1.4940    1.7730   -2.7470 o         1 MOL     -0.693053
     48 O8         -3.4400    0.8280   -2.4430 o         1 MOL     -0.693053
     49 H21        -3.0270    3.6440   -0.9700 hn        1 MOL      0.210185
     50 H22        -4.4510    4.7390   -3.3310 h1        1 MOL      0.055291
     51 H23        -2.9090    3.3680   -4.3800 hc        1 MOL      0.053950
     52 H24        -4.4250    2.4200   -4.0700 hc        1 MOL      0.053950
     53 N5         -5.1520    2.6360   -0.7460 n         1 MOL      0.035586
     54 C17        -6.1850    2.3730    0.2590 c3        1 MOL     -0.186101
     55 C18        -6.8420    0.9760    0.1750 c         1 MOL      0.495630
     56 O9         -7.8240    0.6610    0.8650 o         1 MOL     -0.584892
     57 H25        -4.1800    2.4400   -0.5350 hn        1 MOL     -0.046651
     58 H26        -6.9370    3.1700    0.2720 h1        1 MOL      0.120942
     59 H27        -5.7450    2.4910    1.2540 h1        1 MOL      0.120942
     60 N6         -6.2880    0.0400   -0.5770 n         1 MOL     -0.312349
     61 C19        -6.6370   -1.4000   -0.7150 c3        1 MOL      0.027201
     62 C20        -6.4630   -2.1730    0.5550 c         1 MOL      0.433269
     63 O10        -6.5860   -3.3980    0.5150 o         1 MOL     -0.562013
     64 C21        -5.8830   -1.9260   -1.9400 c3        1 MOL     -0.296503
     65 C22        -4.4240   -2.1900   -1.7790 c         1 MOL      0.638890
     66 N7         -3.7310   -2.6230   -2.8160 n         1 MOL     -0.769389
     67 O11        -3.8210   -1.9800   -0.7090 o         1 MOL     -0.394321
     68 H28        -5.4790    0.4110   -1.0350 hn        1 MOL      0.201126
     69 H29        -7.7170   -1.4840   -0.8590 h1        1 MOL      0.116848
     70 H30        -6.0650   -1.2990   -2.8050 hc        1 MOL      0.106238
     71 H31        -6.4240   -2.8440   -2.1580 hc        1 MOL      0.106238
     72 H32        -4.2470   -2.6930   -3.6770 hn        1 MOL      0.335229
     73 H33        -2.8510   -3.1140   -2.7370 hn        1 MOL      0.335229
     74 N8         -6.0970   -1.5900    1.6530 n         1 MOL     -0.198844
     75 C23        -5.9150   -2.2640    2.9700 c3        1 MOL     -0.222141
     76 C24        -4.4990   -2.8590    3.2500 c         1 MOL      0.509412
     77 O12        -4.2030   -3.3870    4.3240 o         1 MOL     -0.572589
     78 H34        -5.8480   -0.6210    1.5640 hn        1 MOL      0.312368
     79 H35        -6.6790   -2.9960    3.2320 h1        1 MOL      0.127731
     80 H36        -6.0750   -1.4160    3.6370 h1        1 MOL      0.127731
     81 N9         -3.5780   -2.7600    2.2690 n         1 MOL      0.075715
     82 C25        -2.2610   -3.3930    2.5010 c3        1 MOL     -0.029804
     83 C26        -1.0540   -2.5990    1.8620 c         1 MOL      0.469708
     84 O13        -1.2360   -1.6840    1.1100 o         1 MOL     -0.361068
     85 C27        -2.2720   -4.9390    2.1840 c3        1 MOL     -0.210199
     86 C28        -2.3390   -5.3290    0.7260 ca        1 MOL      0.030234
     87 C29        -3.5750   -5.5670    0.1500 ca        1 MOL     -0.075104
     88 C30        -1.1960   -5.5630   -0.0420 ca        1 MOL     -0.075104
     89 C31        -3.7600   -5.9780   -1.1940 ca        1 MOL     -0.294386
     90 C32        -1.3520   -6.0230   -1.3810 ca        1 MOL     -0.294386
     91 C33        -2.6070   -6.2250   -1.9880 ca        1 MOL      0.369658
     92 O14        -2.6420   -6.7050   -3.2690 oh        1 MOL     -0.574797
     93 H37        -3.6980   -2.0610    1.5480 hn        1 MOL     -0.154866
     94 H38        -2.0950   -3.3080    3.5700 h1        1 MOL      0.090497
     95 H39        -3.1360   -5.3720    2.7000 hc        1 MOL      0.095078
     96 H40        -1.3710   -5.3450    2.6520 hc        1 MOL      0.095078
     97 H41        -4.3540   -5.2440    0.8240 ha        1 MOL      0.118052
     98 H42        -0.2090   -5.4010    0.3570 ha        1 MOL      0.118052
     99 H43        -4.6940   -6.0450   -1.7150 ha        1 MOL      0.135778
    100 H44        -0.4580   -6.0440   -2.0060 ha        1 MOL      0.135778
    101 H45        -3.4960   -7.0620   -3.4860 ho        1 MOL      0.428526
    102 N10         0.2220   -2.9720    2.1530 n         1 MOL     -0.582027
    103 C34         1.4250   -2.3480    1.5880 c3        1 MOL     -0.003783
    104 C35         2.4120   -3.3530    1.0750 c         1 MOL      0.269585
    105 O15         2.5270   -4.4530    1.6330 o         1 MOL     -0.508679
    106 C36         2.0970   -1.3950    2.6160 c3        1 MOL      0.292416
    107 C37         2.5470   -2.0790    3.9520 c3        1 MOL      0.058571
    108 C38         1.2780   -0.1640    2.7370 c3        1 MOL     -1.155569
    109 C39         3.4550   -1.1390    4.7580 c3        1 MOL     -0.226947
    110 H46         0.4010   -3.8460    2.6290 hn        1 MOL      0.318675
    111 H47         1.1420   -1.7070    0.7490 h1        1 MOL      0.080516
    112 H48         3.0870   -1.2270    2.1820 hc        1 MOL     -0.018400
    113 H49         3.0320   -3.0290    3.7370 hc        1 MOL      0.026919
    114 H50         1.6810   -2.2650    4.5920 hc        1 MOL      0.026919
    115 H51         1.8190    0.3580    3.5140 hc        1 MOL      0.341368
    116 H52         1.2540    0.4960    1.8670 hc        1 MOL      0.341368
    117 H53         0.2360   -0.3790    2.9670 hc        1 MOL      0.341368
    118 H54         4.0140   -1.7220    5.4860 hc        1 MOL      0.046058
    119 H55         4.1320   -0.6760    4.0400 hc        1 MOL      0.046058
    120 H56         2.8200   -0.4020    5.2550 hc        1 MOL      0.046058
    121 N11         3.2300   -2.9600    0.0970 n         1 MOL     -0.018768
    122 C40         4.4000   -3.5640   -0.4250 c3        1 MOL      0.047656
    123 C41         5.6680   -2.9430    0.1290 c         1 MOL      0.403074
    124 O16         5.7390   -1.8930    0.8090 o         1 MOL     -0.403246
    125 C42         4.4930   -3.5590   -1.9340 c3        1 MOL     -0.170767
    126 O17         4.5100   -2.2910   -2.6210 oh        1 MOL     -0.508331
    127 H57         2.8300   -2.1880   -0.4260 hn        1 MOL      0.106364
    128 H58         4.3850   -4.6450   -0.2350 h1        1 MOL      0.060385
    129 H59         3.6770   -4.1320   -2.3620 h1        1 MOL      0.104203
    130 H60         5.4490   -4.0300   -2.2000 h1        1 MOL      0.104203
    131 H61         4.4690   -2.3890   -3.5780 ho        1 MOL      0.409377
    132 N12         6.7660   -3.6150   -0.1940 n         1 MOL     -0.440654
    133 C43         8.1130   -2.9330   -0.1000 c3        1 MOL      0.168210
    134 C44         8.1980   -1.4960   -0.7220 c         1 MOL      0.584229
    135 O18         8.9430   -0.6630   -0.2240 o         1 MOL     -0.551274
    136 C45         9.1520   -3.8880   -0.6070 c3        1 MOL     -0.188494
    137 H62         6.7140   -4.5950   -0.4300 hn        1 MOL      0.299606
    138 H63         8.2510   -2.7540    0.9610 h1        1 MOL      0.036248
    139 H64         9.3040   -3.5580   -1.6340 hc        1 MOL      0.054166
    140 H65        10.1040   -3.6960   -0.1000 hc        1 MOL      0.054166
    141 H66         8.8450   -4.9220   -0.5050 hc        1 MOL      0.054166
    142 N13         7.4830   -1.2530   -1.7980 n         1 MOL     -0.384438
    143 C46         7.5670    0.0110   -2.5400 c3        1 MOL      0.086488
    144 C47         6.8340    1.1500   -1.7900 c         1 MOL      0.316025
    145 O19         7.3060    2.2540   -1.6320 o         1 MOL     -0.488279
    146 C48         7.0720   -0.2610   -3.9880 c3        1 MOL     -0.203673
    147 H67         6.7410   -1.8740   -2.0710 hn        1 MOL      0.182867
    148 H68         8.6350    0.2490   -2.5530 h1        1 MOL      0.095525
    149 H69         5.9880   -0.3780   -4.0220 hc        1 MOL      0.054742
    150 H70         7.4540    0.5140   -4.6570 hc        1 MOL      0.054742
    151 H71         7.5560   -1.1450   -4.4140 hc        1 MOL      0.054742
    152 N14         5.6120    0.8640   -1.3250 n         1 MOL     -0.200377
    153 C49         4.7960    1.8050   -0.5210 c3        1 MOL     -0.177865
    154 C50         5.4920    2.0940    0.8160 c         1 MOL      0.489920
    155 O20         5.3620    3.1300    1.3870 o         1 MOL     -0.577700
    156 C51         3.4990    1.0750   -0.1840 c3        1 MOL      0.036385
    157 C52         2.6930    0.8150   -1.4460 c3        1 MOL      0.091998
    158 C53         1.3600    0.1550   -1.1380 c         1 MOL      0.681763
    159 O21         1.0660   -1.0310   -1.5120 o         1 MOL     -0.728979
    160 O22         0.5200    0.8220   -0.4540 o         1 MOL     -0.728979
    161 H72         5.2560   -0.0620   -1.5490 hn        1 MOL      0.380663
    162 H73         4.6120    2.7580   -1.0190 h1        1 MOL      0.133552
    163 H74         2.8790    1.7290    0.4290 hc        1 MOL      0.015511
    164 H75         3.6450    0.0910    0.2740 hc        1 MOL      0.015511
    165 H76         3.3570    0.3200   -2.1490 hc        1 MOL     -0.073280
    166 H77         2.4690    1.7610   -1.9400 hc        1 MOL     -0.073280
    167 N15         6.2530    1.1490    1.3820 n         1 MOL      0.015515
    168 C54         6.9990    1.2740    2.6170 c3        1 MOL     -0.381908
    169 H78         7.5430    0.3490    2.8080 h1        1 MOL      0.129396
    170 H79         7.7060    2.1000    2.5330 h1        1 MOL      0.129396
    171 H80         6.3100    1.4670    3.4400 h1        1 MOL      0.129396
    172 H81         6.3000    0.2200    0.9910 hn        1 MOL      0.049856
    173 Ca1        -1.6580   -0.5040   -1.2800 Ca        1 MOL      1.745521
    174 O23        -1.2230   -1.1720   -4.0030 oh        1 MOL     -0.805474
    175 H82        -1.8730   -1.5550   -4.5960 ho        1 MOL      0.398864
    176 H83        -0.5700   -0.7900   -4.5840 ho        1 MOL      0.398864
    177 O24        -1.0820   -3.0740   -1.7340 oh        1 MOL     -0.805474
    178 H84        -0.2530   -3.3120   -2.1560 ho        1 MOL      0.398864
    179 H85        -1.2630   -3.8110   -1.1430 ho        1 MOL      0.398864
@<TRIPOS>BOND
     1    1    2 1   
     2    1    4 1   
     3    1    5 1   
     4    1    6 1   
     5    2    3 2   
     6    2    7 1   
     7    7    8 1   
     8    7   15 1   
     9    8    9 1   
    10    8   11 1   
    11    8   16 1   
    12    9   10 2   
    13    9   19 1   
    14   11   12 1   
    15   11   17 1   
    16   11   18 1   
    17   12   13 1   
    18   12   14 1   
    19   19   20 1   
    20   19   28 1   
    21   20   21 1   
    22   20   23 1   
    23   20   29 1   
    24   21   22 2   
    25   21   41 1   
    26   23   24 1   
    27   23   30 1   
    28   23   31 1   
    29   24   25 1   
    30   24   32 1   
    31   24   33 1   
    32   25   26 1   
    33   25   34 1   
    34   25   35 1   
    35   26   27 1   
    36   26   36 1   
    37   26   37 1   
    38   27   38 1   
    39   27   39 1   
    40   27   40 1   
    41   41   42 1   
    42   41   49 1   
    43   42   43 1   
    44   42   45 1   
    45   42   50 1   
    46   43   44 2   
    47   43   53 1   
    48   45   46 1   
    49   45   51 1   
    50   45   52 1   
    51   46   47 1   
    52   46   48 1   
    53   53   54 1   
    54   53   57 1   
    55   54   55 1   
    56   54   58 1   
    57   54   59 1   
    58   55   56 2   
    59   55   60 1   
    60   60   61 1   
    61   60   68 1   
    62   61   62 1   
    63   61   64 1   
    64   61   69 1   
    65   62   63 2   
    66   62   74 1   
    67   64   65 1   
    68   64   70 1   
    69   64   71 1   
    70   65   66 1   
    71   65   67 2   
    72   66   72 1   
    73   66   73 1   
    74   74   75 1   
    75   74   78 1   
    76   75   76 1   
    77   75   79 1   
    78   75   80 1   
    79   76   77 2   
    80   76   81 1   
    81   81   82 1   
    82   81   93 1   
    83   82   83 1   
    84   82   85 1   
    85   82   94 1   
    86   83   84 2   
    87   83  102 1   
    88   85   86 1   
    89   85   95 1   
    90   85   96 1   
    91   86   87 ar  
    92   86   88 ar  
    93   87   89 ar  
    94   87   97 1   
    95   88   90 ar  
    96   88   98 1   
    97   89   91 ar  
    98   89   99 1   
    99   90   91 ar  
   100   90  100 1   
   101   91   92 1   
   102   92  101 1   
   103  102  103 1   
   104  102  110 1   
   105  103  104 1   
   106  103  106 1   
   107  103  111 1   
   108  104  105 2   
   109  104  121 1   
   110  106  107 1   
   111  106  108 1   
   112  106  112 1   
   113  107  109 1   
   114  107  113 1   
   115  107  114 1   
   116  108  115 1   
   117  108  116 1   
   118  108  117 1   
   119  109  118 1   
   120  109  119 1   
   121  109  120 1   
   122  121  122 1   
   123  121  127 1   
   124  122  123 1   
   125  122  125 1   
   126  122  128 1   
   127  123  124 2   
   128  123  132 1   
   129  125  126 1   
   130  125  129 1   
   131  125  130 1   
   132  126  131 1   
   133  132  133 1   
   134  132  137 1   
   135  133  134 1   
   136  133  136 1   
   137  133  138 1   
   138  134  135 2   
   139  134  142 1   
   140  136  139 1   
   141  136  140 1   
   142  136  141 1   
   143  142  143 1   
   144  142  147 1   
   145  143  144 1   
   146  143  146 1   
   147  143  148 1   
   148  144  145 2   
   149  144  152 1   
   150  146  149 1   
   151  146  150 1   
   152  146  151 1   
   153  152  153 1   
   154  152  161 1   
   155  153  154 1   
   156  153  156 1   
   157  153  162 1   
   158  154  155 2   
   159  154  167 1   
   160  156  157 1   
   161  156  163 1   
   162  156  164 1   
   163  157  158 1   
   164  157  165 1   
   165  157  166 1   
   166  158  159 1   
   167  158  160 1   
   168  167  168 1   
   169  167  172 1   
   170  168  169 1   
   171  168  170 1   
   172  168  171 1   
   173  174  175 1   
   174  174  176 1   
   175  177  178 1   
   176  177  179 1   
@<TRIPOS>SUBSTRUCTURE
     1 MOL         1 TEMP              0 ****  ****    0 ROOT
