@<TRIPOS>MOLECULE
MOL
  175   173     1     0     0
SMALL
resp


@<TRIPOS>ATOM
      1 C1          0.0310    4.8840    5.1870 c3        1 MOL     -0.476759
      2 C2         -0.4620    4.5700    3.7340 c         1 MOL      0.719531
      3 O1          0.2900    4.7360    2.8250 o         1 MOL     -0.528997
      4 H1         -0.7740    4.6870    5.8940 hc        1 MOL      0.110113
      5 H2          0.8860    4.2510    5.4250 hc        1 MOL      0.110113
      6 H3          0.3240    5.9320    5.2530 hc        1 MOL      0.110113
      7 N1         -1.7810    4.2250    3.6410 n         1 MOL     -0.606854
      8 C3         -2.3260    3.6490    2.4050 c3        1 MOL      0.045532
      9 C4         -2.6160    4.6870    1.3110 c         1 MOL      0.661790
     10 O2         -3.0610    5.8210    1.6290 o         1 MOL     -0.597416
     11 C5         -3.5700    2.9740    2.8550 c3        1 MOL     -0.439469
     12 C6         -4.1880    2.0310    1.8720 c         1 MOL      0.916056
     13 O3         -3.7710    1.9100    0.6940 o         1 MOL     -0.719770
     14 O4         -5.2100    1.4260    2.3260 o         1 MOL     -0.719770
     15 H4         -2.3110    4.2870    4.5030 hn        1 MOL      0.348849
     16 H5         -1.6050    2.9060    2.0770 h1        1 MOL      0.164367
     17 H6         -4.3290    3.7250    3.0850 hc        1 MOL      0.091571
     18 H7         -3.3440    2.4390    3.7730 hc        1 MOL      0.091571
     19 N2         -2.3150    4.3600    0.0250 n         1 MOL     -0.673469
     20 C7         -2.3460    5.2010   -1.1940 c3        1 MOL      0.423504
     21 C8         -3.6170    4.8410   -1.9650 c         1 MOL      0.485655
     22 O5         -3.9740    5.7480   -2.7810 o         1 MOL     -0.595275
     23 C9         -1.0350    5.0270   -1.9210 c3        1 MOL     -0.188180
     24 H8         -1.9490    3.4340   -0.1160 hn        1 MOL      0.285422
     25 H9         -2.4380    6.2840   -1.0630 h1        1 MOL     -0.008861
     26 H10        -0.7990    4.0160   -2.2490 hc        1 MOL      0.038902
     27 H11        -1.0180    5.6720   -2.8000 hc        1 MOL      0.038902
     28 H12        -0.2510    5.3930   -1.2620 hc        1 MOL      0.038902
     29 N3         -4.2750    3.7460   -1.6870 n         1 MOL     -0.528521
     30 C10        -5.1800    3.1620   -2.6590 c3        1 MOL      0.145612
     31 C11        -6.3650    2.3100   -2.1340 c         1 MOL      0.441354
     32 O6         -7.2780    2.0900   -2.9020 o         1 MOL     -0.545070
     33 C12        -4.3880    2.4080   -3.7310 c3        1 MOL      0.000626
     34 C13        -3.3770    1.4550   -3.1060 c         1 MOL      0.542082
     35 O7         -3.7790    0.7260   -2.1830 o         1 MOL     -0.666134
     36 O8         -2.1240    1.5380   -3.3470 o         1 MOL     -0.666134
     37 H13        -3.9280    3.0790   -1.0040 hn        1 MOL      0.359441
     38 H14        -5.7550    3.8700   -3.2550 h1        1 MOL      0.051393
     39 H15        -3.9030    3.1450   -4.3750 hc        1 MOL      0.001534
     40 H16        -5.0710    1.9340   -4.4270 hc        1 MOL      0.001534
     41 N4         -6.3260    1.9290   -0.8240 n         1 MOL     -0.235813
     42 C14        -7.4570    1.0770   -0.2640 c3        1 MOL     -0.303184
     43 C15        -7.4560   -0.3340   -0.7650 c         1 MOL      0.514014
     44 O9         -8.4230   -1.0670   -0.6590 o         1 MOL     -0.610443
     45 H17        -5.5130    2.2260   -0.2960 hn        1 MOL      0.153369
     46 H18        -8.3720    1.5530   -0.5950 h1        1 MOL      0.150967
     47 H19        -7.4380    1.0270    0.8260 h1        1 MOL      0.150967
     48 N5         -6.3590   -0.7820   -1.3020 n         1 MOL     -0.022699
     49 C16        -6.1720   -2.0980   -1.8480 c3        1 MOL     -0.052526
     50 C17        -6.0630   -3.3500   -0.8520 c         1 MOL      0.478950
     51 O10        -6.3430   -4.4790   -1.2720 o         1 MOL     -0.572285
     52 C18        -5.1260   -2.2040   -3.0000 c3        1 MOL     -0.118553
     53 C19        -3.6710   -2.1940   -2.5790 c         1 MOL      0.550148
     54 N6         -2.7590   -2.2750   -3.4830 n         1 MOL     -0.548377
     55 O11        -3.4000   -2.2550   -1.3950 o         1 MOL     -0.562831
     56 H20        -5.6440   -0.0920   -1.4950 hn        1 MOL      0.075634
     57 H21        -7.1300   -2.2520   -2.3540 h1        1 MOL      0.077312
     58 H22        -5.2750   -1.3980   -3.7290 hc        1 MOL      0.041384
     59 H23        -5.2350   -3.1590   -3.5120 hc        1 MOL      0.041384
     60 H24        -3.0550   -2.3390   -4.4470 hn        1 MOL      0.307865
     61 H25        -1.7870   -2.1930   -3.2210 hn        1 MOL      0.307865
     62 N7         -6.0020   -3.1440    0.4100 n         1 MOL     -0.159377
     63 C20        -5.9850   -4.1210    1.5100 c3        1 MOL     -0.301368
     64 C21        -4.6190   -4.8030    1.8400 c         1 MOL      0.535735
     65 O12        -4.6060   -5.6970    2.6780 o         1 MOL     -0.558871
     66 H26        -5.8740   -2.1820    0.6970 hn        1 MOL      0.184786
     67 H27        -6.7040   -4.9190    1.2740 h1        1 MOL      0.130867
     68 H28        -6.2980   -3.6660    2.4490 h1        1 MOL      0.130867
     69 N8         -3.5670   -4.2880    1.1780 n         1 MOL     -0.183747
     70 C22        -2.2510   -4.6500    1.4810 c3        1 MOL     -0.187770
     71 C23        -1.2920   -3.4420    1.5470 c         1 MOL      0.461399
     72 O13        -1.4600   -2.4670    0.8830 o         1 MOL     -0.538418
     73 C24        -1.6600   -5.3760    0.3150 c3        1 MOL      0.490041
     74 C25        -2.3440   -6.8180    0.3280 c3        1 MOL     -0.490775
     75 O14        -1.9870   -4.7870   -0.9200 oh        1 MOL     -0.596483
     76 H29        -3.7280   -3.6350    0.4240 hn        1 MOL      0.212950
     77 H30        -2.1520   -5.0880    2.4670 h1        1 MOL      0.099046
     78 H31        -0.5820   -5.4540    0.4540 h1        1 MOL     -0.048584
     79 H32        -2.0250   -3.8250   -0.8630 ho        1 MOL      0.353066
     80 H33        -3.3480   -6.8400   -0.1020 hc        1 MOL      0.123342
     81 H34        -1.8120   -7.5230   -0.3120 hc        1 MOL      0.123342
     82 H35        -2.3570   -7.1930    1.3520 hc        1 MOL      0.123342
     83 N9         -0.1340   -3.6370    2.2530 n         1 MOL     -0.450038
     84 C26         0.9970   -2.7220    2.2460 c3        1 MOL     -0.003413
     85 C27         1.8530   -3.0910    1.0090 c         1 MOL      0.614750
     86 O15         2.5250   -4.1190    0.9200 o         1 MOL     -0.599840
     87 C28         1.7950   -2.7920    3.5070 c3        1 MOL      0.001286
     88 C29         1.1560   -2.1360    4.7190 c3        1 MOL      0.043612
     89 C30         3.2540   -2.2370    3.3780 c3        1 MOL     -0.239660
     90 C31         1.0390   -0.5690    4.6290 c3        1 MOL     -0.337275
     91 H36        -0.1970   -4.5040    2.7750 hn        1 MOL      0.271598
     92 H37         0.5840   -1.7110    2.1790 h1        1 MOL      0.157840
     93 H38         1.9340   -3.8620    3.7170 hc        1 MOL      0.019869
     94 H39         1.6290   -2.3940    5.6620 hc        1 MOL      0.005061
     95 H40         0.1840   -2.6240    4.8450 hc        1 MOL      0.005061
     96 H41         3.7340   -2.4000    4.3460 hc        1 MOL      0.063347
     97 H42         3.7680   -2.7910    2.5910 hc        1 MOL      0.063347
     98 H43         3.2600   -1.1630    3.1570 hc        1 MOL      0.063347
     99 H44         0.6200   -0.1770    3.7110 hc        1 MOL      0.077535
    100 H45         0.4380   -0.2350    5.4750 hc        1 MOL      0.077535
    101 H46         2.0140   -0.1020    4.7710 hc        1 MOL      0.077535
    102 N10         1.9120   -2.1010    0.1350 n         1 MOL     -0.229674
    103 C32         2.7070   -2.1090   -1.1220 c3        1 MOL     -0.017800
    104 C33         4.0600   -1.4490   -0.8590 c         1 MOL      0.625945
    105 O16         4.2640   -0.6700    0.0420 o         1 MOL     -0.433921
    106 C34         2.0300   -1.1860   -2.1860 c3        1 MOL     -0.191487
    107 C35         0.5490   -1.4220   -2.4590 c         1 MOL      0.734793
    108 O17        -0.2430   -0.9660   -1.6390 o         1 MOL     -0.679426
    109 O18         0.1100   -2.0340   -3.4630 o         1 MOL     -0.679426
    110 H47         1.4730   -1.2270    0.3680 hn        1 MOL      0.104645
    111 H48         2.9160   -3.1250   -1.4650 h1        1 MOL      0.088176
    112 H49         2.4000   -1.3640   -3.1940 hc        1 MOL      0.046873
    113 H50         2.2880   -0.1810   -1.8670 hc        1 MOL      0.046873
    114 N11         5.1240   -1.7820   -1.6300 n         1 MOL     -0.829585
    115 C36         6.5530   -1.4230   -1.3000 c3        1 MOL      0.445599
    116 C37         6.8080    0.0730   -1.0810 c         1 MOL      0.345939
    117 O19         7.4340    0.3420   -0.0710 o         1 MOL     -0.512133
    118 C38         7.5150   -2.0520   -2.3710 c3        1 MOL     -0.214690
    119 C39         8.9750   -1.8430   -2.0090 ca        1 MOL      0.102973
    120 C40         9.5190   -2.3640   -0.7940 ca        1 MOL     -0.207770
    121 C41         9.7780   -1.0280   -2.7880 ca        1 MOL     -0.207770
    122 C42        10.8280   -2.0710   -0.3500 ca        1 MOL     -0.049525
    123 C43        11.0860   -0.7560   -2.4220 ca        1 MOL     -0.049525
    124 C44        11.5970   -1.2920   -1.2420 ca        1 MOL     -0.169075
    125 H51         5.1250   -2.5670   -2.2600 hn        1 MOL      0.346753
    126 H52         6.8610   -1.9200   -0.3750 h1        1 MOL      0.038417
    127 H53         7.3550   -1.7880   -3.4140 hc        1 MOL      0.066823
    128 H54         7.3870   -3.1290   -2.3940 hc        1 MOL      0.066823
    129 H55         8.8770   -2.9630   -0.1580 ha        1 MOL      0.117714
    130 H56         9.3960   -0.6260   -3.7190 ha        1 MOL      0.117714
    131 H57        11.2050   -2.4130    0.6020 ha        1 MOL      0.106608
    132 H58        11.6100   -0.1020   -3.0980 ha        1 MOL      0.106608
    133 H59        12.6100   -1.0210   -0.9830 ha        1 MOL      0.099999
    134 N12         6.2880    0.9500   -1.8150 n         1 MOL     -0.110842
    135 C45         6.3270    2.3990   -1.4980 c3        1 MOL      0.127464
    136 C46         5.7520    2.7390   -0.1290 c         1 MOL      0.242262
    137 O20         6.2480    3.6280    0.5020 o         1 MOL     -0.488179
    138 C47         5.6550    3.0490   -2.7310 c3        1 MOL      0.051351
    139 C48         5.9340    2.0530   -3.8460 c3        1 MOL      0.008989
    140 C49         5.8240    0.7410   -3.1800 c3        1 MOL     -0.076930
    141 H60         7.3680    2.7120   -1.4430 h1        1 MOL      0.030242
    142 H61         4.5930    3.1170   -2.5180 hc        1 MOL      0.000118
    143 H62         6.0210    4.0400   -2.9890 hc        1 MOL      0.000118
    144 H63         5.3380    2.1300   -4.7540 hc        1 MOL      0.011616
    145 H64         6.9720    2.2480   -4.1160 hc        1 MOL      0.011616
    146 H65         4.7800    0.4410   -3.1350 h1        1 MOL      0.053772
    147 H66         6.4190   -0.0320   -3.6770 h1        1 MOL      0.053772
    148 N13         4.6200    2.1700    0.3140 n         1 MOL     -0.092801
    149 C50         4.0090    2.3610    1.6780 c3        1 MOL     -0.312406
    150 C51         4.8410    1.6960    2.7480 c         1 MOL      0.531021
    151 O21         4.7250    2.1500    3.9040 o         1 MOL     -0.575644
    152 C52         2.5200    1.8960    1.7120 c3        1 MOL      0.112049
    153 C53         1.7030    2.2940    0.4060 c3        1 MOL     -0.029102
    154 C54         0.2750    1.6370    0.4900 c         1 MOL      0.367043
    155 O22        -0.7100    2.1100   -0.0480 o         1 MOL     -0.556184
    156 O23         0.0520    0.5780    1.1170 o         1 MOL     -0.556184
    157 H67         4.1240    1.5620   -0.3170 hn        1 MOL      0.226247
    158 H68         4.0170    3.4430    1.8150 h1        1 MOL      0.171411
    159 H69         1.8960    2.3760    2.4620 hc        1 MOL      0.018023
    160 H70         2.5470    0.8160    1.8310 hc        1 MOL      0.018023
    161 H71         2.3210    1.9450   -0.4210 hc        1 MOL      0.032425
    162 H72         1.7310    3.3690    0.2350 hc        1 MOL      0.032425
    163 N14         5.6680    0.6750    2.4340 n         1 MOL     -0.037869
    164 C55         6.6720    0.1780    3.3410 c3        1 MOL     -0.189412
    165 H73         7.6190    0.0710    2.8110 h1        1 MOL      0.073247
    166 H74         6.7960    0.8800    4.1660 h1        1 MOL      0.073247
    167 H75         6.3630   -0.7910    3.7310 h1        1 MOL      0.073247
    168 H76         5.4370    0.2650    1.5370 hn        1 MOL      0.073798
    169 Ca1        -2.1950   -0.0660   -0.3070 Ca        1 MOL      1.655272
    170 O24        -4.3170   -1.1000    1.4870 oh        1 MOL     -0.786499
    171 H77        -4.7700   -0.3440    1.8550 ho        1 MOL      0.377615
    172 H78        -4.1020   -1.6430    2.2460 ho        1 MOL      0.377615
    173 O25        -1.8250    0.0420    2.7130 oh        1 MOL     -0.786499
    174 H79        -0.9570    0.2310    2.3640 ho        1 MOL      0.377615
    175 H80        -1.7060    0.0490    3.6690 ho        1 MOL      0.377615
@<TRIPOS>BOND
     1    1    2 1   
     2    1    4 1   
     3    1    5 1   
     4    1    6 1   
     5    2    3 2   
     6    2    7 1   
     7    7    8 1   
     8    7   15 1   
     9    8    9 1   
    10    8   11 1   
    11    8   16 1   
    12    9   10 2   
    13    9   19 1   
    14   11   12 1   
    15   11   17 1   
    16   11   18 1   
    17   12   13 1   
    18   12   14 1   
    19   19   20 1   
    20   19   24 1   
    21   20   21 1   
    22   20   23 1   
    23   20   25 1   
    24   21   22 2   
    25   21   29 1   
    26   23   26 1   
    27   23   27 1   
    28   23   28 1   
    29   29   30 1   
    30   29   37 1   
    31   30   31 1   
    32   30   33 1   
    33   30   38 1   
    34   31   32 2   
    35   31   41 1   
    36   33   34 1   
    37   33   39 1   
    38   33   40 1   
    39   34   35 1   
    40   34   36 1   
    41   41   42 1   
    42   41   45 1   
    43   42   43 1   
    44   42   46 1   
    45   42   47 1   
    46   43   44 2   
    47   43   48 1   
    48   48   49 1   
    49   48   56 1   
    50   49   50 1   
    51   49   52 1   
    52   49   57 1   
    53   50   51 2   
    54   50   62 1   
    55   52   53 1   
    56   52   58 1   
    57   52   59 1   
    58   53   54 1   
    59   53   55 2   
    60   54   60 1   
    61   54   61 1   
    62   62   63 1   
    63   62   66 1   
    64   63   64 1   
    65   63   67 1   
    66   63   68 1   
    67   64   65 2   
    68   64   69 1   
    69   69   70 1   
    70   69   76 1   
    71   70   71 1   
    72   70   73 1   
    73   70   77 1   
    74   71   72 2   
    75   71   83 1   
    76   73   74 1   
    77   73   75 1   
    78   73   78 1   
    79   74   80 1   
    80   74   81 1   
    81   74   82 1   
    82   75   79 1   
    83   83   84 1   
    84   83   91 1   
    85   84   85 1   
    86   84   87 1   
    87   84   92 1   
    88   85   86 2   
    89   85  102 1   
    90   87   88 1   
    91   87   89 1   
    92   87   93 1   
    93   88   90 1   
    94   88   94 1   
    95   88   95 1   
    96   89   96 1   
    97   89   97 1   
    98   89   98 1   
    99   90   99 1   
   100   90  100 1   
   101   90  101 1   
   102  102  103 1   
   103  102  110 1   
   104  103  104 1   
   105  103  106 1   
   106  103  111 1   
   107  104  105 2   
   108  104  114 1   
   109  106  107 1   
   110  106  112 1   
   111  106  113 1   
   112  107  108 1   
   113  107  109 1   
   114  114  115 1   
   115  114  125 1   
   116  115  116 1   
   117  115  118 1   
   118  115  126 1   
   119  116  117 2   
   120  116  134 1   
   121  118  119 1   
   122  118  127 1   
   123  118  128 1   
   124  119  120 ar  
   125  119  121 ar  
   126  120  122 ar  
   127  120  129 1   
   128  121  123 ar  
   129  121  130 1   
   130  122  124 ar  
   131  122  131 1   
   132  123  124 ar  
   133  123  132 1   
   134  124  133 1   
   135  134  135 1   
   136  134  140 1   
   137  135  136 1   
   138  135  138 1   
   139  135  141 1   
   140  136  137 2   
   141  136  148 1   
   142  138  139 1   
   143  138  142 1   
   144  138  143 1   
   145  139  140 1   
   146  139  144 1   
   147  139  145 1   
   148  140  146 1   
   149  140  147 1   
   150  148  149 1   
   151  148  157 1   
   152  149  150 1   
   153  149  152 1   
   154  149  158 1   
   155  150  151 2   
   156  150  163 1   
   157  152  153 1   
   158  152  159 1   
   159  152  160 1   
   160  153  154 1   
   161  153  161 1   
   162  153  162 1   
   163  154  155 1   
   164  154  156 1   
   165  163  164 1   
   166  163  168 1   
   167  164  165 1   
   168  164  166 1   
   169  164  167 1   
   170  170  171 1   
   171  170  172 1   
   172  173  174 1   
   173  173  175 1   
@<TRIPOS>SUBSTRUCTURE
     1 MOL         1 TEMP              0 ****  ****    0 ROOT
