@<TRIPOS>MOLECULE
MOL
  189   185     1     0     0
SMALL
resp


@<TRIPOS>ATOM
      1 C1         -0.2190    3.5680   -4.5480 c3        1 MOL     -0.332878
      2 C2          0.5100    3.1130   -3.2920 c         1 MOL      0.486809
      3 O1          0.0990    3.2970   -2.1710 o         1 MOL     -0.510914
      4 H1         -0.9760    2.8310   -4.8160 hc        1 MOL      0.089244
      5 H2         -0.6980    4.5290   -4.3630 hc        1 MOL      0.089244
      6 H3          0.4940    3.6690   -5.3660 hc        1 MOL      0.089244
      7 N1          1.5800    2.3760   -3.4540 n         1 MOL     -0.403676
      8 C3          2.4190    1.8590   -2.2820 c3        1 MOL      0.126057
      9 C4          3.3140    2.9170   -1.7550 c         1 MOL      0.415095
     10 O2          4.5430    2.8370   -1.9830 o         1 MOL     -0.453233
     11 C5          3.1200    0.5430   -2.6780 c3        1 MOL     -0.318381
     12 C6          3.9750    0.0080   -1.5350 c         1 MOL      0.698211
     13 O3          3.5420    0.2230   -0.3750 o         1 MOL     -0.606653
     14 O4          4.8940   -0.7210   -1.8320 o         1 MOL     -0.606653
     15 H4          1.8520    2.2700   -4.4260 hn        1 MOL      0.280376
     16 H5          1.6640    1.6170   -1.5270 h1        1 MOL      0.076802
     17 H6          3.7330    0.7460   -3.5520 hc        1 MOL      0.070207
     18 H7          2.4340   -0.2650   -2.9220 hc        1 MOL      0.070207
     19 N2          2.7790    3.9350   -1.0780 n         1 MOL     -0.410306
     20 C7          3.3880    5.0530   -0.2800 c3        1 MOL      0.004135
     21 C8          4.2740    4.7670    0.9680 c         1 MOL      0.445842
     22 O5          5.1210    5.5950    1.3270 o         1 MOL     -0.565588
     23 C9          2.4300    6.1350    0.1200 c3        1 MOL     -0.095672
     24 C10         1.6370    6.7030   -1.1480 c3        1 MOL      0.301185
     25 C11         0.9010    7.9970   -0.7310 c3        1 MOL     -0.169662
     26 C12         0.2290    8.7540   -1.9000 c3        1 MOL     -0.035871
     27 N3         -0.8960    7.9820   -2.4620 n4        1 MOL     -0.345190
     28 H8          1.7710    3.9650   -1.1470 hn        1 MOL      0.286472
     29 H9          4.0560    5.5620   -0.9630 h1        1 MOL      0.084997
     30 H10         2.9380    6.9360    0.6590 hc        1 MOL      0.040586
     31 H11         1.6830    5.7300    0.8060 hc        1 MOL      0.040586
     32 H12         0.9130    5.9230   -1.3790 hc        1 MOL     -0.076054
     33 H13         2.2950    6.8660   -2.0070 hc        1 MOL     -0.076054
     34 H14         1.7180    8.6400   -0.3900 hc        1 MOL      0.072438
     35 H15         0.2330    7.7290    0.0830 hc        1 MOL      0.072438
     36 H16         0.9250    8.9980   -2.7070 hx        1 MOL      0.108099
     37 H17        -0.1750    9.6960   -1.5100 hx        1 MOL      0.108099
     38 H18        -1.3310    7.3940   -1.7680 hn        1 MOL      0.329138
     39 H19        -1.5860    8.6090   -2.8600 hn        1 MOL      0.329138
     40 H20        -0.5920    7.3510   -3.1980 hn        1 MOL      0.329138
     41 N4          4.2340    3.5850    1.5260 n         1 MOL     -0.257124
     42 C13         5.1530    3.1740    2.6160 c3        1 MOL      0.071721
     43 C14         6.2630    2.1390    2.1690 c         1 MOL      0.404727
     44 O6          7.2860    2.0010    2.7510 o         1 MOL     -0.531095
     45 C15         4.3590    2.6610    3.8470 c3        1 MOL     -0.352606
     46 C16         3.1280    1.8170    3.5100 c         1 MOL      0.816139
     47 O7          2.1840    1.8380    4.2920 o         1 MOL     -0.743179
     48 O8          3.0340    1.2410    2.3920 o         1 MOL     -0.743179
     49 H21         3.5140    2.9380    1.2400 hn        1 MOL      0.272377
     50 H22         5.7810    3.9990    2.9700 h1        1 MOL      0.090342
     51 H23         4.1100    3.4080    4.6050 hc        1 MOL      0.092301
     52 H24         5.0680    1.9590    4.2950 hc        1 MOL      0.092301
     53 N5          6.0630    1.5620    1.0190 n         1 MOL      0.183821
     54 C17         7.0970    0.8700    0.2440 c3        1 MOL     -0.316509
     55 C18         7.2630   -0.5440    0.8530 c         1 MOL      0.679724
     56 O9          8.3080   -0.8290    1.4940 o         1 MOL     -0.586244
     57 H25         5.1490    1.6120    0.5870 hn        1 MOL     -0.132115
     58 H26         8.0430    1.3830    0.3890 h1        1 MOL      0.109464
     59 H27         6.7520    0.7590   -0.7870 h1        1 MOL      0.109464
     60 N6          6.2980   -1.4440    0.6630 n         1 MOL     -0.589095
     61 C19         6.3640   -2.8170    1.1380 c3        1 MOL      0.260072
     62 C20         6.2150   -3.8560   -0.0020 c         1 MOL      0.392802
     63 O10         6.2760   -5.0430    0.3310 o         1 MOL     -0.531829
     64 C21         5.4530   -2.9560    2.3030 c3        1 MOL     -0.374392
     65 C22         3.9390   -2.5420    2.0510 c         1 MOL      0.810874
     66 O11         3.5100   -2.7130    0.8980 o         1 MOL     -0.757542
     67 O12         3.3310   -1.7820    2.8660 o         1 MOL     -0.757542
     68 H28         5.4300   -1.1010    0.2650 hn        1 MOL      0.278843
     69 H29         7.3500   -3.0760    1.4910 h1        1 MOL      0.071954
     70 H30         5.8310   -2.3300    3.1230 hc        1 MOL      0.096103
     71 H31         5.4290   -3.9850    2.6430 hc        1 MOL      0.096103
     72 N7          6.0110   -3.4720   -1.2430 n         1 MOL     -0.319488
     73 C23         5.7250   -4.4050   -2.3420 c3        1 MOL     -0.069810
     74 C24         4.2570   -4.8700   -2.3880 c         1 MOL      0.505776
     75 O13         3.9530   -5.7520   -3.2110 o         1 MOL     -0.578065
     76 H32         5.7730   -2.5010   -1.4150 hn        1 MOL      0.239554
     77 H33         6.3910   -5.2640   -2.3100 h1        1 MOL      0.091165
     78 H34         5.9530   -3.8770   -3.2690 h1        1 MOL      0.091165
     79 N8          3.3860   -4.2480   -1.5990 n         1 MOL     -0.248387
     80 C25         1.9890   -4.6050   -1.5640 c3        1 MOL     -0.255374
     81 C26         1.0010   -3.4160   -1.3930 c         1 MOL      0.722888
     82 O14         1.2170   -2.4470   -0.6700 o         1 MOL     -0.667566
     83 C27         1.6670   -5.6050   -0.4830 c3        1 MOL      0.537064
     84 C28         2.1840   -6.9770   -0.9340 c3        1 MOL     -0.361655
     85 O15         2.3150   -5.2390    0.7900 oh        1 MOL     -0.709962
     86 H35         3.7200   -3.5430   -0.9580 hn        1 MOL      0.272049
     87 H36         1.7730   -5.0550   -2.5290 h1        1 MOL      0.109786
     88 H37         0.5950   -5.7290   -0.3140 h1        1 MOL     -0.062787
     89 H38         2.5690   -4.3120    0.7620 ho        1 MOL      0.483174
     90 H39         3.2720   -6.9390   -1.0190 hc        1 MOL      0.090571
     91 H40         1.7680   -7.7350   -0.2750 hc        1 MOL      0.090571
     92 H41         1.6660   -7.1570   -1.8780 hc        1 MOL      0.090571
     93 N9         -0.1150   -3.5550   -2.0640 n         1 MOL     -0.706822
     94 C29        -1.1400   -2.4900   -2.0680 c3        1 MOL      0.201948
     95 C30        -2.3990   -3.1020   -1.3080 c         1 MOL      0.454515
     96 O16        -3.0270   -4.0890   -1.8180 o         1 MOL     -0.556266
     97 C31        -1.3960   -2.0240   -3.5360 c3        1 MOL      0.122305
     98 C32        -0.1130   -1.3820   -4.2230 c3        1 MOL      0.086907
     99 C33        -2.5420   -1.0360   -3.4460 c3        1 MOL     -0.433680
    100 C34        -0.3090   -1.1420   -5.7520 c3        1 MOL     -0.245485
    101 H42        -0.2420   -4.4140   -2.5870 hn        1 MOL      0.328792
    102 H43        -0.7330   -1.6760   -1.4660 h1        1 MOL     -0.003379
    103 H44        -1.8280   -2.8520   -4.1020 hc        1 MOL      0.006398
    104 H45         0.7340   -2.0620   -4.1280 hc        1 MOL      0.033643
    105 H46         0.1720   -0.4160   -3.7940 hc        1 MOL      0.033643
    106 H47        -2.9850   -0.8560   -4.4220 hc        1 MOL      0.101691
    107 H48        -3.3360   -1.4270   -2.8130 hc        1 MOL      0.101691
    108 H49        -2.0550   -0.1360   -3.0710 hc        1 MOL      0.101691
    109 H50         0.6590   -0.8190   -6.1560 hc        1 MOL      0.056269
    110 H51        -0.4770   -2.1140   -6.2050 hc        1 MOL      0.056269
    111 H52        -1.0940   -0.3990   -5.9200 hc        1 MOL      0.056269
    112 N10        -2.8310   -2.4360   -0.2800 n         1 MOL     -0.251649
    113 C35        -4.1230   -2.7700    0.4320 c3        1 MOL     -0.023548
    114 C36        -5.3730   -2.0480   -0.2310 c         1 MOL      0.461032
    115 O17        -5.1720   -1.1350   -1.0030 o         1 MOL     -0.345887
    116 C37        -3.9720   -2.4440    1.9360 c3        1 MOL      0.154555
    117 C38        -2.8180   -3.2900    2.6070 c3        1 MOL     -0.356465
    118 O18        -3.7460   -1.1010    2.0610 oh        1 MOL     -0.463218
    119 H53        -2.2970   -1.6650    0.1000 hn        1 MOL      0.322337
    120 H54        -4.2890   -3.8410    0.3670 h1        1 MOL      0.074487
    121 H55        -4.9420   -2.6090    2.4210 h1        1 MOL      0.031509
    122 H56        -2.7970   -0.9960    1.9080 ho        1 MOL      0.298814
    123 H57        -1.8970   -2.7260    2.7310 hc        1 MOL      0.102906
    124 H58        -3.1020   -3.6600    3.5870 hc        1 MOL      0.102906
    125 H59        -2.6670   -4.1430    1.9420 hc        1 MOL      0.102906
    126 N11        -6.6080   -2.3750    0.1890 n         1 MOL     -0.428958
    127 C39        -7.8760   -1.7950   -0.4050 c3        1 MOL     -0.169404
    128 C40        -7.9660   -0.3240   -0.1650 c         1 MOL      0.452196
    129 O19        -8.1130    0.4020   -1.1420 o         1 MOL     -0.468922
    130 C41        -9.1510   -2.4610    0.1180 c3        1 MOL      0.289462
    131 C42        -9.3070   -3.7700   -0.7140 c3        1 MOL     -0.354230
    132 O20        -9.1540   -2.9490    1.4870 oh        1 MOL     -0.560043
    133 H60        -6.6450   -3.0730    0.9250 hn        1 MOL      0.277860
    134 H61        -7.8680   -1.9580   -1.4820 h1        1 MOL      0.179521
    135 H62       -10.0330   -1.8390   -0.0280 h1        1 MOL      0.060012
    136 H63        -8.6910   -2.3450    2.0750 ho        1 MOL      0.338326
    137 H64        -9.3880   -3.4410   -1.7500 hc        1 MOL      0.111544
    138 H65        -8.5220   -4.4820   -0.4570 hc        1 MOL      0.111544
    139 H66       -10.1630   -4.4070   -0.4670 hc        1 MOL      0.111544
    140 N12        -7.6910    0.0820    1.0700 n         1 MOL     -0.388535
    141 C43        -7.3590    1.4640    1.5480 c3        1 MOL      0.006469
    142 C44        -6.2890    2.2610    0.7490 c         1 MOL      0.345630
    143 O21        -6.3990    3.4550    0.5230 o         1 MOL     -0.526320
    144 C45        -7.0430    1.5270    3.0420 c3        1 MOL     -0.217878
    145 C46        -5.7870    0.7560    3.4110 c3        1 MOL      0.033441
    146 C47        -5.3510    1.1600    4.8500 c3        1 MOL     -0.300173
    147 C48        -4.2170    0.1430    5.2670 c3        1 MOL      0.191411
    148 N13        -3.4310    0.5430    6.4020 n4        1 MOL     -0.524367
    149 H67        -7.5920   -0.5630    1.8440 hn        1 MOL      0.251888
    150 H68        -8.2780    2.0410    1.4760 h1        1 MOL      0.111234
    151 H69        -7.9140    1.1340    3.5590 hc        1 MOL      0.092594
    152 H70        -6.9520    2.5650    3.3580 hc        1 MOL      0.092594
    153 H71        -4.9590    1.0680    2.7800 hc        1 MOL      0.040047
    154 H72        -6.0020   -0.3080    3.2710 hc        1 MOL      0.040047
    155 H73        -6.2090    1.1760    5.5100 hc        1 MOL      0.112419
    156 H74        -5.0670    2.2090    4.7530 hc        1 MOL      0.112419
    157 H75        -3.5800   -0.0050    4.3920 hx        1 MOL      0.051554
    158 H76        -4.6160   -0.8600    5.4060 hx        1 MOL      0.051554
    159 H77        -2.7860    1.2900    6.1940 hn        1 MOL      0.374018
    160 H78        -4.0950    0.7040    7.1460 hn        1 MOL      0.374018
    161 H79        -2.8460   -0.2130    6.7400 hn        1 MOL      0.374018
    162 N14        -5.2560    1.6560    0.2190 n         1 MOL      0.044596
    163 C49        -4.1630    2.3450   -0.5040 c3        1 MOL     -0.155171
    164 C50        -4.5000    2.6090   -1.9740 c         1 MOL      0.583506
    165 O22        -4.2230    3.7250   -2.4270 o         1 MOL     -0.593487
    166 C51        -3.0360    1.3440   -0.4050 c3        1 MOL      0.098018
    167 C52        -1.9990    1.7380    0.6020 c3        1 MOL     -0.340050
    168 C53        -0.7850    0.7920    0.4690 c         1 MOL      0.813327
    169 O23        -0.8830   -0.4240    0.6910 o         1 MOL     -0.731837
    170 O24         0.3510    1.3460    0.4110 o         1 MOL     -0.731837
    171 H80        -5.1570    0.6570    0.3300 hn        1 MOL      0.093531
    172 H81        -3.8790    3.2560    0.0170 h1        1 MOL      0.095093
    173 H82        -2.5450    1.3360   -1.3790 hc        1 MOL     -0.007738
    174 H83        -3.4220    0.3400   -0.2460 hc        1 MOL     -0.007738
    175 H84        -2.4720    1.5870    1.5760 hc        1 MOL      0.082690
    176 H85        -1.6270    2.7530    0.4210 hc        1 MOL      0.082690
    177 N15        -5.0490    1.6400   -2.6900 n         1 MOL     -0.220114
    178 C54        -5.6670    1.8370   -3.9470 c3        1 MOL     -0.213255
    179 H86        -6.4490    1.0910   -4.0870 h1        1 MOL      0.094955
    180 H87        -6.1060    2.8340   -3.9850 h1        1 MOL      0.094955
    181 H88        -4.9240    1.7360   -4.7380 h1        1 MOL      0.094955
    182 H89        -5.1250    0.7510   -2.2000 hn        1 MOL      0.183371
    183 Ca1         1.7350   -0.7530    1.2560 Ca        1 MOL      1.746420
    184 O25         0.5390   -0.3060    3.6900 oh        1 MOL     -0.843344
    185 H90         0.9070    0.5160    4.0000 ho        1 MOL      0.394817
    186 H91         0.5380   -0.8770    4.4560 ho        1 MOL      0.394817
    187 O26         0.6400   -3.0730    2.2220 oh        1 MOL     -0.843344
    188 H92        -0.2180   -3.4560    2.0570 ho        1 MOL      0.394817
    189 H93         1.0030   -3.5730    2.9520 ho        1 MOL      0.394817
@<TRIPOS>BOND
     1    1    2 1   
     2    1    4 1   
     3    1    5 1   
     4    1    6 1   
     5    2    3 2   
     6    2    7 1   
     7    7    8 1   
     8    7   15 1   
     9    8    9 1   
    10    8   11 1   
    11    8   16 1   
    12    9   10 2   
    13    9   19 1   
    14   11   12 1   
    15   11   17 1   
    16   11   18 1   
    17   12   13 1   
    18   12   14 1   
    19   19   20 1   
    20   19   28 1   
    21   20   21 1   
    22   20   23 1   
    23   20   29 1   
    24   21   22 2   
    25   21   41 1   
    26   23   24 1   
    27   23   30 1   
    28   23   31 1   
    29   24   25 1   
    30   24   32 1   
    31   24   33 1   
    32   25   26 1   
    33   25   34 1   
    34   25   35 1   
    35   26   27 1   
    36   26   36 1   
    37   26   37 1   
    38   27   38 1   
    39   27   39 1   
    40   27   40 1   
    41   41   42 1   
    42   41   49 1   
    43   42   43 1   
    44   42   45 1   
    45   42   50 1   
    46   43   44 2   
    47   43   53 1   
    48   45   46 1   
    49   45   51 1   
    50   45   52 1   
    51   46   47 1   
    52   46   48 1   
    53   53   54 1   
    54   53   57 1   
    55   54   55 1   
    56   54   58 1   
    57   54   59 1   
    58   55   56 2   
    59   55   60 1   
    60   60   61 1   
    61   60   68 1   
    62   61   62 1   
    63   61   64 1   
    64   61   69 1   
    65   62   63 2   
    66   62   72 1   
    67   64   65 1   
    68   64   70 1   
    69   64   71 1   
    70   65   66 1   
    71   65   67 1   
    72   72   73 1   
    73   72   76 1   
    74   73   74 1   
    75   73   77 1   
    76   73   78 1   
    77   74   75 2   
    78   74   79 1   
    79   79   80 1   
    80   79   86 1   
    81   80   81 1   
    82   80   83 1   
    83   80   87 1   
    84   81   82 2   
    85   81   93 1   
    86   83   84 1   
    87   83   85 1   
    88   83   88 1   
    89   84   90 1   
    90   84   91 1   
    91   84   92 1   
    92   85   89 1   
    93   93   94 1   
    94   93  101 1   
    95   94   95 1   
    96   94   97 1   
    97   94  102 1   
    98   95   96 2   
    99   95  112 1   
   100   97   98 1   
   101   97   99 1   
   102   97  103 1   
   103   98  100 1   
   104   98  104 1   
   105   98  105 1   
   106   99  106 1   
   107   99  107 1   
   108   99  108 1   
   109  100  109 1   
   110  100  110 1   
   111  100  111 1   
   112  112  113 1   
   113  112  119 1   
   114  113  114 1   
   115  113  116 1   
   116  113  120 1   
   117  114  115 2   
   118  114  126 1   
   119  116  117 1   
   120  116  118 1   
   121  116  121 1   
   122  117  123 1   
   123  117  124 1   
   124  117  125 1   
   125  118  122 1   
   126  126  127 1   
   127  126  133 1   
   128  127  128 1   
   129  127  130 1   
   130  127  134 1   
   131  128  129 2   
   132  128  140 1   
   133  130  131 1   
   134  130  132 1   
   135  130  135 1   
   136  131  137 1   
   137  131  138 1   
   138  131  139 1   
   139  132  136 1   
   140  140  141 1   
   141  140  149 1   
   142  141  142 1   
   143  141  144 1   
   144  141  150 1   
   145  142  143 2   
   146  142  162 1   
   147  144  145 1   
   148  144  151 1   
   149  144  152 1   
   150  145  146 1   
   151  145  153 1   
   152  145  154 1   
   153  146  147 1   
   154  146  155 1   
   155  146  156 1   
   156  147  148 1   
   157  147  157 1   
   158  147  158 1   
   159  148  159 1   
   160  148  160 1   
   161  148  161 1   
   162  162  163 1   
   163  162  171 1   
   164  163  164 1   
   165  163  166 1   
   166  163  172 1   
   167  164  165 2   
   168  164  177 1   
   169  166  167 1   
   170  166  173 1   
   171  166  174 1   
   172  167  168 1   
   173  167  175 1   
   174  167  176 1   
   175  168  169 1   
   176  168  170 1   
   177  177  178 1   
   178  177  182 1   
   179  178  179 1   
   180  178  180 1   
   181  178  181 1   
   182  184  185 1   
   183  184  186 1   
   184  187  188 1   
   185  187  189 1   
@<TRIPOS>SUBSTRUCTURE
     1 MOL         1 TEMP              0 ****  ****    0 ROOT
