@<TRIPOS>MOLECULE
MOL
  176   174     1     0     0
SMALL
resp


@<TRIPOS>ATOM
      1 C1          1.1620    3.0140    6.0570 c3        1 MOL     -0.341527
      2 C2          0.8680    2.5160    4.6650 c         1 MOL      0.756728
      3 O1          1.7340    2.2690    3.8050 o         1 MOL     -0.618502
      4 H1          0.9140    2.2360    6.7800 hc        1 MOL      0.085907
      5 H2          2.2200    3.2610    6.1380 hc        1 MOL      0.085907
      6 H3          0.5630    3.9020    6.2600 hc        1 MOL      0.085907
      7 N1         -0.4300    2.5360    4.3740 n         1 MOL     -0.564803
      8 C3         -0.9640    2.2690    3.0340 c3        1 MOL      0.028732
      9 C4         -1.0950    3.6050    2.2850 c         1 MOL      0.562753
     10 O2         -1.8120    4.5160    2.7430 o         1 MOL     -0.559443
     11 C5         -2.3340    1.5030    3.2010 c3        1 MOL     -0.075983
     12 C6         -2.8960    0.9330    1.9330 c         1 MOL      0.793358
     13 O3         -3.7350    0.0080    2.0600 o         1 MOL     -0.761867
     14 O4         -2.4660    1.3430    0.8310 o         1 MOL     -0.761867
     15 H4         -1.0890    2.7840    5.1030 hn        1 MOL      0.311650
     16 H5         -0.3530    1.5980    2.4310 h1        1 MOL      0.072681
     17 H6         -3.0520    2.1640    3.6930 hc        1 MOL      0.028438
     18 H7         -2.1180    0.6910    3.8920 hc        1 MOL      0.028438
     19 N2         -0.3870    3.7570    1.1620 n         1 MOL     -0.299498
     20 C7         -0.3480    4.9860    0.3520 c3        1 MOL     -0.080791
     21 C8         -1.5970    5.3910   -0.4300 c         1 MOL      0.450249
     22 O5         -1.8880    6.5870   -0.4210 o         1 MOL     -0.517824
     23 C9          0.8370    4.7930   -0.6800 c3        1 MOL      0.007561
     24 C10         1.3700    6.2200   -1.0550 c3        1 MOL     -0.158641
     25 C11         2.3630    6.2320   -2.1920 c3        1 MOL      0.087782
     26 C12         3.1690    7.5030   -2.3640 c3        1 MOL      0.041360
     27 N3          4.1140    7.4740   -3.5340 n4        1 MOL     -0.357788
     28 H8          0.1130    2.9800    0.7630 hn        1 MOL      0.173117
     29 H9         -0.0810    5.7830    1.0570 h1        1 MOL      0.115077
     30 H10         0.5430    4.2270   -1.5700 hc        1 MOL      0.075558
     31 H11         1.7240    4.3860   -0.1920 hc        1 MOL      0.075558
     32 H12         1.8210    6.7000   -0.1750 hc        1 MOL      0.050851
     33 H13         0.5160    6.8380   -1.2950 hc        1 MOL      0.050851
     34 H14         1.8080    5.9360   -3.0860 hc        1 MOL     -0.004685
     35 H15         3.0780    5.4080   -2.1200 hc        1 MOL     -0.004685
     36 H16         3.7620    7.6660   -1.4630 hx        1 MOL      0.078564
     37 H17         2.4190    8.2850   -2.4650 hx        1 MOL      0.078564
     38 H18         4.7970    6.7540   -3.3640 hn        1 MOL      0.328579
     39 H19         3.6720    7.1920   -4.3980 hn        1 MOL      0.328579
     40 H20         4.5450    8.3860   -3.6100 hn        1 MOL      0.328579
     41 N4         -2.3290    4.3970   -1.1040 n         1 MOL     -0.153482
     42 C13        -3.5270    4.5150   -1.8700 c3        1 MOL     -0.054207
     43 C14        -4.7980    4.1250   -1.0100 c         1 MOL      0.497142
     44 O6         -5.9030    4.4940   -1.3960 o         1 MOL     -0.547346
     45 C15        -3.3940    3.5270   -3.0350 c3        1 MOL     -0.105598
     46 C16        -2.8510    2.1650   -2.7120 c         1 MOL      0.647793
     47 O7         -1.6440    1.8870   -2.8540 o         1 MOL     -0.740227
     48 O8         -3.5050    1.2900   -2.0700 o         1 MOL     -0.740227
     49 H21        -1.9100    3.4800   -0.9940 hn        1 MOL      0.121630
     50 H22        -3.6300    5.5310   -2.2650 h1        1 MOL      0.102090
     51 H23        -2.7320    3.9900   -3.7650 hc        1 MOL      0.047150
     52 H24        -4.3520    3.4330   -3.5430 hc        1 MOL      0.047150
     53 N5         -4.7150    3.3780    0.1430 n         1 MOL     -0.241939
     54 C17        -5.9120    2.8770    0.8880 c3        1 MOL     -0.223235
     55 C18        -6.5190    1.5320    0.4610 c         1 MOL      0.552275
     56 O9         -7.4410    1.1230    1.1830 o         1 MOL     -0.586361
     57 H25        -3.8220    3.0840    0.4980 hn        1 MOL      0.174712
     58 H26        -6.6810    3.6410    0.7690 h1        1 MOL      0.133703
     59 H27        -5.6600    2.8900    1.9430 h1        1 MOL      0.133703
     60 N6         -6.0790    0.8240   -0.5570 n         1 MOL     -0.311084
     61 C19        -6.7030   -0.3290   -1.1490 c3        1 MOL      0.061390
     62 C20        -6.7230   -1.5380   -0.2020 c         1 MOL      0.434427
     63 O10        -7.4800   -2.5040   -0.3710 o         1 MOL     -0.549201
     64 C21        -5.9860   -0.6060   -2.4880 c3        1 MOL     -0.332427
     65 C22        -4.6010   -1.2620   -2.3270 c         1 MOL      0.696453
     66 N7         -4.2620   -1.8890   -3.3900 n         1 MOL     -0.671526
     67 O11        -3.9260   -1.3210   -1.2860 o         1 MOL     -0.650887
     68 H28        -5.2620    1.1910   -1.0220 hn        1 MOL      0.248062
     69 H29        -7.7620   -0.2420   -1.3610 h1        1 MOL      0.085798
     70 H30        -5.9900    0.3030   -3.0960 hc        1 MOL      0.116672
     71 H31        -6.6640   -1.3080   -2.9930 hc        1 MOL      0.116672
     72 H32        -4.8970   -1.9140   -4.1730 hn        1 MOL      0.325451
     73 H33        -3.4150   -2.4370   -3.4210 hn        1 MOL      0.325451
     74 N8         -6.0320   -1.4120    0.9830 n         1 MOL     -0.148383
     75 C23        -6.1370   -2.4120    2.0740 c3        1 MOL     -0.298646
     76 C24        -4.9180   -3.3090    2.2250 c         1 MOL      0.535644
     77 O12        -4.9320   -4.1390    3.1330 o         1 MOL     -0.567845
     78 H34        -5.4230   -0.6170    1.0930 hn        1 MOL      0.304337
     79 H35        -6.9720   -3.1000    1.9650 h1        1 MOL      0.144641
     80 H36        -6.2160   -1.7890    2.9600 h1        1 MOL      0.144641
     81 N9         -3.8230   -2.9820    1.5100 n         1 MOL     -0.124706
     82 C25        -2.5110   -3.7440    1.6660 c3        1 MOL     -0.013061
     83 C26        -1.2630   -2.8810    1.5010 c         1 MOL      0.575249
     84 O13        -1.1640   -1.9800    0.6410 o         1 MOL     -0.683979
     85 C27        -2.5610   -5.0580    0.8790 c3        1 MOL     -0.159859
     86 C28        -2.7010   -4.9030   -0.6600 ca        1 MOL     -0.044989
     87 C29        -1.5910   -4.6920   -1.4690 ca        1 MOL     -0.037963
     88 C30        -3.9960   -5.0650   -1.2690 ca        1 MOL     -0.037963
     89 C31        -1.6970   -4.8800   -2.8450 ca        1 MOL     -0.327053
     90 C32        -4.0970   -5.2740   -2.6460 ca        1 MOL     -0.327053
     91 C33        -2.9570   -5.2540   -3.4460 ca        1 MOL      0.336947
     92 O14        -3.0440   -5.5350   -4.7840 oh        1 MOL     -0.479890
     93 H37        -3.8900   -2.1210    0.9820 hn        1 MOL      0.113532
     94 H38        -2.5710   -4.0720    2.7020 h1        1 MOL      0.045538
     95 H39        -3.4320   -5.6090    1.2190 hc        1 MOL      0.093066
     96 H40        -1.7340   -5.7230    1.1140 hc        1 MOL      0.093066
     97 H41        -0.6550   -4.6000   -0.9380 ha        1 MOL      0.135127
     98 H42        -4.8650   -5.2200   -0.6480 ha        1 MOL      0.135127
     99 H43        -0.8420   -4.7900   -3.5000 ha        1 MOL      0.167031
    100 H44        -5.0780   -5.5430   -3.0220 ha        1 MOL      0.167031
    101 H45        -2.2400   -5.3860   -5.2790 ho        1 MOL      0.343320
    102 N10        -0.2040   -3.4470    2.0830 n         1 MOL     -0.519291
    103 C34         1.0960   -2.8100    2.1000 c3        1 MOL      0.016116
    104 C35         1.9400   -3.6070    1.1360 c         1 MOL      0.483863
    105 O15         1.9990   -4.8160    1.1210 o         1 MOL     -0.555664
    106 C36         1.7420   -2.6120    3.5020 c3        1 MOL      0.204714
    107 C37         0.6870   -2.0420    4.5280 c3        1 MOL      0.123728
    108 C38         2.9670   -1.7610    3.2860 c3        1 MOL     -0.483442
    109 C39         1.1730   -2.0620    6.0510 c3        1 MOL     -0.130894
    110 H46        -0.3930   -4.0620    2.8610 hn        1 MOL      0.327986
    111 H47         0.9900   -1.8120    1.6820 h1        1 MOL      0.103616
    112 H48         1.8960   -3.6160    3.8840 hc        1 MOL     -0.025599
    113 H49        -0.2770   -2.5510    4.5970 hc        1 MOL     -0.016754
    114 H50         0.5210   -0.9870    4.2970 hc        1 MOL     -0.016754
    115 H51         3.5630   -1.7590    4.2010 hc        1 MOL      0.100803
    116 H52         3.5880   -2.0660    2.4410 hc        1 MOL      0.100803
    117 H53         2.5750   -0.7740    3.0760 hc        1 MOL      0.100803
    118 H54         2.2640   -2.0650    6.1570 hc        1 MOL      0.030274
    119 H55         0.7550   -1.1850    6.5430 hc        1 MOL      0.030274
    120 H56         0.8260   -2.9480    6.5740 hc        1 MOL      0.030274
    121 N11         2.5230   -2.9220    0.1710 n         1 MOL     -0.010322
    122 C40         3.5210   -3.4920   -0.8200 c3        1 MOL     -0.239562
    123 C41         4.9530   -2.9840   -0.5490 c         1 MOL      0.563285
    124 O16         5.1440   -1.9990    0.0990 o         1 MOL     -0.408557
    125 C42         3.0440   -3.2650   -2.1890 c3        1 MOL      0.258276
    126 O17         2.9750   -1.8730   -2.4320 oh        1 MOL     -0.654022
    127 H57         2.1090   -2.0370   -0.1110 hn        1 MOL      0.095305
    128 H58         3.5520   -4.5380   -0.5170 h1        1 MOL      0.079921
    129 H59         2.0970   -3.7630   -2.4000 h1        1 MOL     -0.006912
    130 H60         3.7830   -3.6850   -2.8690 h1        1 MOL     -0.006912
    131 H61         2.2010   -1.4710   -2.0430 ho        1 MOL      0.445406
    132 N12         5.9670   -3.6790   -0.9970 n         1 MOL     -0.448968
    133 C43         7.3480   -3.4180   -0.6770 c3        1 MOL      0.170006
    134 C44         7.8300   -1.9670   -0.8850 c         1 MOL      0.457578
    135 O18         8.4170   -1.3200   -0.0990 o         1 MOL     -0.482773
    136 C45         8.2030   -4.4810   -1.3500 c3        1 MOL     -0.365421
    137 H62         5.7400   -4.4770   -1.5720 hn        1 MOL      0.286389
    138 H63         7.4370   -3.5500    0.4010 h1        1 MOL      0.060366
    139 H64         7.8200   -5.4690   -1.0850 hc        1 MOL      0.110830
    140 H65         8.0340   -4.3070   -2.4180 hc        1 MOL      0.110830
    141 H66         9.2590   -4.3780   -1.1160 hc        1 MOL      0.110830
    142 N13         7.5350   -1.3810   -2.0330 n         1 MOL     -0.380922
    143 C46         7.6840    0.0730   -2.2050 c3        1 MOL      0.173578
    144 C47         6.9370    0.9770   -1.1960 c         1 MOL      0.303954
    145 O19         7.4870    2.0250   -0.7690 o         1 MOL     -0.496363
    146 C48         7.1580    0.3660   -3.6470 c3        1 MOL     -0.377403
    147 H67         7.2530   -1.9480   -2.8220 hn        1 MOL      0.262496
    148 H68         8.7350    0.3520   -2.1330 h1        1 MOL      0.067801
    149 H69         7.3380    1.4110   -3.9310 hc        1 MOL      0.100201
    150 H70         7.7490   -0.3420   -4.2300 hc        1 MOL      0.100201
    151 H71         6.0890    0.1570   -3.7490 hc        1 MOL      0.100201
    152 N14         5.7160    0.5720   -0.7980 n         1 MOL     -0.066951
    153 C49         5.0850    1.3380    0.2350 c3        1 MOL     -0.171387
    154 C50         5.7650    1.2260    1.5800 c         1 MOL      0.418912
    155 O20         5.8250    2.1730    2.3180 o         1 MOL     -0.528782
    156 C51         3.6390    1.0590    0.3160 c3        1 MOL      0.149884
    157 C52         2.8050    1.5440   -0.8790 c3        1 MOL     -0.080008
    158 C53         1.3730    0.9440   -0.8200 c         1 MOL      0.733166
    159 O21         1.1710   -0.2170   -1.1420 o         1 MOL     -0.737622
    160 O22         0.3990    1.6240   -0.4350 o         1 MOL     -0.737622
    161 H72         5.4550   -0.3880   -0.9890 hn        1 MOL      0.103960
    162 H73         5.0980    2.3940   -0.0620 h1        1 MOL      0.104190
    163 H74         3.2490    1.5360    1.2170 hc        1 MOL      0.018859
    164 H75         3.4770   -0.0030    0.4660 hc        1 MOL      0.018859
    165 H76         3.2650    1.1940   -1.8050 hc        1 MOL     -0.025578
    166 H77         2.7900    2.6350   -0.9580 hc        1 MOL     -0.025578
    167 N15         6.3920    0.0880    1.7880 n         1 MOL     -0.021381
    168 C54         7.2260   -0.1520    2.9270 c3        1 MOL     -0.215743
    169 H78         6.6510   -0.6640    3.6980 h1        1 MOL      0.083198
    170 H79         8.0730   -0.7740    2.6330 h1        1 MOL      0.083198
    171 H80         7.5910    0.7990    3.3180 h1        1 MOL      0.083198
    172 H81         6.3070   -0.7290    1.2070 hn        1 MOL      0.119735
    173 Ca1        -1.5030   -0.0890   -1.1450 Ca        1 MOL      1.827275
    174 O23        -0.8110   -1.4830   -3.2620 oh        1 MOL     -0.919790
    175 H82        -1.1340   -2.1540   -3.8540 ho        1 MOL      0.427766
    176 H83        -0.0770   -1.0800   -3.7300 ho        1 MOL      0.427766
@<TRIPOS>BOND
     1    1    2 1   
     2    1    4 1   
     3    1    5 1   
     4    1    6 1   
     5    2    3 2   
     6    2    7 1   
     7    7    8 1   
     8    7   15 1   
     9    8    9 1   
    10    8   11 1   
    11    8   16 1   
    12    9   10 2   
    13    9   19 1   
    14   11   12 1   
    15   11   17 1   
    16   11   18 1   
    17   12   13 1   
    18   12   14 1   
    19   19   20 1   
    20   19   28 1   
    21   20   21 1   
    22   20   23 1   
    23   20   29 1   
    24   21   22 2   
    25   21   41 1   
    26   23   24 1   
    27   23   30 1   
    28   23   31 1   
    29   24   25 1   
    30   24   32 1   
    31   24   33 1   
    32   25   26 1   
    33   25   34 1   
    34   25   35 1   
    35   26   27 1   
    36   26   36 1   
    37   26   37 1   
    38   27   38 1   
    39   27   39 1   
    40   27   40 1   
    41   41   42 1   
    42   41   49 1   
    43   42   43 1   
    44   42   45 1   
    45   42   50 1   
    46   43   44 2   
    47   43   53 1   
    48   45   46 1   
    49   45   51 1   
    50   45   52 1   
    51   46   47 1   
    52   46   48 1   
    53   53   54 1   
    54   53   57 1   
    55   54   55 1   
    56   54   58 1   
    57   54   59 1   
    58   55   56 2   
    59   55   60 1   
    60   60   61 1   
    61   60   68 1   
    62   61   62 1   
    63   61   64 1   
    64   61   69 1   
    65   62   63 2   
    66   62   74 1   
    67   64   65 1   
    68   64   70 1   
    69   64   71 1   
    70   65   66 1   
    71   65   67 2   
    72   66   72 1   
    73   66   73 1   
    74   74   75 1   
    75   74   78 1   
    76   75   76 1   
    77   75   79 1   
    78   75   80 1   
    79   76   77 2   
    80   76   81 1   
    81   81   82 1   
    82   81   93 1   
    83   82   83 1   
    84   82   85 1   
    85   82   94 1   
    86   83   84 2   
    87   83  102 1   
    88   85   86 1   
    89   85   95 1   
    90   85   96 1   
    91   86   87 ar  
    92   86   88 ar  
    93   87   89 ar  
    94   87   97 1   
    95   88   90 ar  
    96   88   98 1   
    97   89   91 ar  
    98   89   99 1   
    99   90   91 ar  
   100   90  100 1   
   101   91   92 1   
   102   92  101 1   
   103  102  103 1   
   104  102  110 1   
   105  103  104 1   
   106  103  106 1   
   107  103  111 1   
   108  104  105 2   
   109  104  121 1   
   110  106  107 1   
   111  106  108 1   
   112  106  112 1   
   113  107  109 1   
   114  107  113 1   
   115  107  114 1   
   116  108  115 1   
   117  108  116 1   
   118  108  117 1   
   119  109  118 1   
   120  109  119 1   
   121  109  120 1   
   122  121  122 1   
   123  121  127 1   
   124  122  123 1   
   125  122  125 1   
   126  122  128 1   
   127  123  124 2   
   128  123  132 1   
   129  125  126 1   
   130  125  129 1   
   131  125  130 1   
   132  126  131 1   
   133  132  133 1   
   134  132  137 1   
   135  133  134 1   
   136  133  136 1   
   137  133  138 1   
   138  134  135 2   
   139  134  142 1   
   140  136  139 1   
   141  136  140 1   
   142  136  141 1   
   143  142  143 1   
   144  142  147 1   
   145  143  144 1   
   146  143  146 1   
   147  143  148 1   
   148  144  145 2   
   149  144  152 1   
   150  146  149 1   
   151  146  150 1   
   152  146  151 1   
   153  152  153 1   
   154  152  161 1   
   155  153  154 1   
   156  153  156 1   
   157  153  162 1   
   158  154  155 2   
   159  154  167 1   
   160  156  157 1   
   161  156  163 1   
   162  156  164 1   
   163  157  158 1   
   164  157  165 1   
   165  157  166 1   
   166  158  159 1   
   167  158  160 1   
   168  167  168 1   
   169  167  172 1   
   170  168  169 1   
   171  168  170 1   
   172  168  171 1   
   173  174  175 1   
   174  174  176 1   
@<TRIPOS>SUBSTRUCTURE
     1 MOL         1 TEMP              0 ****  ****    0 ROOT
