@<TRIPOS>MOLECULE
MOL
  189   185     1     0     0
SMALL
resp


@<TRIPOS>ATOM
      1 C1          0.0260    3.9500    4.6050 c3        1 MOL     -0.466028
      2 C2         -0.6270    3.4970    3.2660 c         1 MOL      0.884623
      3 O1          0.0580    3.5210    2.3180 o         1 MOL     -0.591955
      4 H1         -0.3370    3.3210    5.4170 hc        1 MOL      0.110017
      5 H2          1.1090    3.8590    4.5310 hc        1 MOL      0.110017
      6 H3         -0.2390    4.9890    4.8060 hc        1 MOL      0.110017
      7 N1         -1.9250    3.1220    3.2980 n         1 MOL     -0.810824
      8 C3         -2.5720    2.4750    2.1220 c3        1 MOL      0.307718
      9 C4         -3.0960    3.4850    1.1790 c         1 MOL      0.423703
     10 O2         -4.0040    4.2280    1.5370 o         1 MOL     -0.591569
     11 C5         -3.6680    1.4650    2.6470 c3        1 MOL     -0.154511
     12 C6         -4.1080    0.5380    1.5020 c         1 MOL      0.702806
     13 O3         -3.5420    0.6370    0.3780 o         1 MOL     -0.723796
     14 O4         -4.9470   -0.3820    1.7570 o         1 MOL     -0.723796
     15 H4         -2.3730    2.9480    4.1830 hn        1 MOL      0.359795
     16 H5         -1.7480    1.9510    1.6440 h1        1 MOL     -0.058655
     17 H6         -4.5480    1.9430    3.0770 hc        1 MOL      0.053281
     18 H7         -3.2220    0.9660    3.4990 hc        1 MOL      0.053281
     19 N2         -2.5180    3.6000    0.0240 n         1 MOL     -0.059633
     20 C7         -2.6830    4.7750   -0.9200 c3        1 MOL      0.047507
     21 C8         -3.7420    4.6170   -2.0700 c         1 MOL      0.356159
     22 O5         -4.2470    5.6320   -2.6400 o         1 MOL     -0.537264
     23 C9         -1.3370    5.2470   -1.5360 c3        1 MOL     -0.068348
     24 C10        -0.2010    5.4780   -0.5820 c3        1 MOL     -0.001411
     25 C11        -0.5300    6.6610    0.3580 c3        1 MOL     -0.024150
     26 C12         0.6440    7.2500    1.1320 c3        1 MOL     -0.049835
     27 N3          0.0980    8.2360    2.0950 n4        1 MOL     -0.204514
     28 H8         -1.7390    2.9940   -0.2050 hn        1 MOL      0.271156
     29 H9         -3.0030    5.6310   -0.3260 h1        1 MOL      0.000120
     30 H10        -1.5930    6.0960   -2.1560 hc        1 MOL      0.043565
     31 H11        -0.9900    4.4390   -2.1750 hc        1 MOL      0.043565
     32 H12         0.6760    5.7500   -1.1660 hc        1 MOL      0.020953
     33 H13         0.0510    4.5620   -0.0550 hc        1 MOL      0.020953
     34 H14        -1.1870    6.1850    1.0960 hc        1 MOL      0.032708
     35 H15        -1.0320    7.4450   -0.2060 hc        1 MOL      0.032708
     36 H16         1.2890    7.7440    0.4020 hx        1 MOL      0.099861
     37 H17         1.0920    6.4580    1.7350 hx        1 MOL      0.099861
     38 H18        -0.2200    7.8580    2.9790 hn        1 MOL      0.283219
     39 H19         0.8530    8.8610    2.3420 hn        1 MOL      0.283219
     40 H20        -0.6410    8.7890    1.6770 hn        1 MOL      0.283219
     41 N4         -3.9890    3.3460   -2.3620 n         1 MOL     -0.125202
     42 C13        -4.9620    2.8990   -3.2940 c3        1 MOL      0.023124
     43 C14        -6.0150    2.0250   -2.6310 c         1 MOL      0.516248
     44 O6         -6.7920    1.4960   -3.3830 o         1 MOL     -0.509897
     45 C15        -4.1660    2.2650   -4.3950 c3        1 MOL     -0.167856
     46 C16        -3.2690    1.1180   -3.9240 c         1 MOL      0.701197
     47 O7         -3.3190    0.6470   -2.7650 o         1 MOL     -0.635960
     48 O8         -2.4130    0.7270   -4.7370 o         1 MOL     -0.635960
     49 H21        -3.6290    2.6270   -1.7620 hn        1 MOL     -0.014917
     50 H22        -5.5380    3.7460   -3.6570 h1        1 MOL      0.080867
     51 H23        -3.5470    3.0360   -4.8660 hc        1 MOL      0.052078
     52 H24        -4.8520    1.9190   -5.1740 hc        1 MOL      0.052078
     53 N5         -6.0540    1.8630   -1.2550 n         1 MOL     -0.394481
     54 C17        -7.1810    1.2040   -0.5280 c3        1 MOL     -0.283368
     55 C18        -7.3140   -0.2980   -0.7590 c         1 MOL      0.546227
     56 O9         -8.3470   -0.9010   -0.4370 o         1 MOL     -0.605185
     57 H25        -5.3130    2.2430   -0.6790 hn        1 MOL      0.268699
     58 H26        -8.1580    1.6170   -0.7700 h1        1 MOL      0.150383
     59 H27        -6.9300    1.3470    0.5250 h1        1 MOL      0.150383
     60 N6         -6.3480   -0.9270   -1.3690 n         1 MOL     -0.198822
     61 C19        -6.5530   -2.3800   -1.6700 c3        1 MOL     -0.094719
     62 C20        -6.5850   -3.2960   -0.4510 c         1 MOL      0.489719
     63 O10        -6.9450   -4.4860   -0.6470 o         1 MOL     -0.572517
     64 C21        -5.5680   -2.8990   -2.7250 c3        1 MOL     -0.282636
     65 C22        -4.1200   -2.7330   -2.2030 c         1 MOL      0.781975
     66 O11        -3.2500   -2.5680   -3.0680 o         1 MOL     -0.730073
     67 O12        -3.8780   -2.6550   -0.9620 o         1 MOL     -0.730073
     68 H28        -5.5820   -0.3980   -1.7560 hn        1 MOL      0.226642
     69 H29        -7.5430   -2.4490   -2.1210 h1        1 MOL      0.128437
     70 H30        -5.5590   -2.3400   -3.6630 hc        1 MOL      0.098111
     71 H31        -5.6890   -3.9620   -2.9440 hc        1 MOL      0.098111
     72 N7         -6.3220   -2.8120    0.7760 n         1 MOL     -0.176735
     73 C23        -6.2860   -3.6120    2.0460 c3        1 MOL     -0.251280
     74 C24        -4.8590   -4.0700    2.4250 c         1 MOL      0.624372
     75 O13        -4.7410   -4.8660    3.3250 o         1 MOL     -0.576659
     76 H32        -5.8560   -1.9230    0.7590 hn        1 MOL      0.264429
     77 H33        -6.9460   -4.4880    1.9820 h1        1 MOL      0.120919
     78 H34        -6.6470   -2.9190    2.8080 h1        1 MOL      0.120919
     79 N8         -3.8380   -3.6100    1.6850 n         1 MOL     -0.239331
     80 C25        -2.4960   -4.1290    1.8860 c3        1 MOL     -0.257729
     81 C26        -1.4070   -2.9820    1.8280 c         1 MOL      0.635854
     82 O14        -1.5190   -2.0670    1.0460 o         1 MOL     -0.614318
     83 C27        -2.2110   -5.2490    0.9160 c3        1 MOL      0.599317
     84 C28        -2.7540   -6.6200    1.3760 c3        1 MOL     -0.390366
     85 O15        -2.8230   -5.0220   -0.3360 oh        1 MOL     -0.728242
     86 H35        -4.0710   -3.1210    0.8340 hn        1 MOL      0.141702
     87 H36        -2.4550   -4.5460    2.8910 h1        1 MOL      0.095486
     88 H37        -1.1200   -5.3130    0.8930 h1        1 MOL     -0.062688
     89 H38        -3.4390   -4.2910   -0.2850 ho        1 MOL      0.462781
     90 H39        -2.1560   -7.4290    0.9610 hc        1 MOL      0.091003
     91 H40        -2.5170   -6.6330    2.4360 hc        1 MOL      0.091003
     92 H41        -3.8370   -6.7480    1.3110 hc        1 MOL      0.091003
     93 N9         -0.2900   -3.1350    2.5920 n         1 MOL     -0.541170
     94 C29         0.7320   -2.1040    2.4830 c3        1 MOL     -0.026090
     95 C30         1.9560   -2.8040    1.9130 c         1 MOL      0.454953
     96 O16         2.5780   -3.7660    2.3720 o         1 MOL     -0.550414
     97 C31         1.0470   -1.5480    3.8760 c3        1 MOL      0.388892
     98 C32        -0.1850   -1.3260    4.8320 c3        1 MOL      0.012384
     99 C33         1.9320   -0.2720    3.6540 c3        1 MOL     -0.707486
    100 C34         0.2170   -0.7550    6.2470 c3        1 MOL     -0.035857
    101 H42        -0.2110   -3.9390    3.1990 hn        1 MOL      0.314262
    102 H43         0.3850   -1.2830    1.8520 h1        1 MOL      0.100469
    103 H44         1.6190   -2.3310    4.3630 hc        1 MOL     -0.056518
    104 H45        -0.6730   -2.2810    5.0070 hc        1 MOL     -0.002664
    105 H46        -0.9310   -0.6400    4.4290 hc        1 MOL     -0.002664
    106 H47         2.2020    0.1200    4.6400 hc        1 MOL      0.142017
    107 H48         2.8630   -0.5300    3.1410 hc        1 MOL      0.142017
    108 H49         1.3500    0.4710    3.1110 hc        1 MOL      0.142017
    109 H50         0.6660    0.2320    6.3090 hc        1 MOL      0.005141
    110 H51        -0.7060   -0.7140    6.8350 hc        1 MOL      0.005141
    111 H52         0.9000   -1.4330    6.7580 hc        1 MOL      0.005141
    112 N10         2.4040   -2.2930    0.7280 n         1 MOL     -0.147518
    113 C35         3.6710   -2.6700    0.1440 c3        1 MOL      0.021171
    114 C36         4.8310   -1.9100    0.7270 c         1 MOL      0.305198
    115 O17         4.7280   -0.8090    1.2740 o         1 MOL     -0.264622
    116 C37         3.5720   -2.4360   -1.3270 c3        1 MOL      0.165665
    117 C38         2.5010   -3.2430   -2.0720 c3        1 MOL     -0.418068
    118 O18         3.2800   -1.0960   -1.5310 oh        1 MOL     -0.487043
    119 H53         1.9310   -1.4500    0.4310 hn        1 MOL      0.236071
    120 H54         3.9120   -3.7050    0.4120 h1        1 MOL      0.080906
    121 H55         4.5360   -2.6870   -1.7880 h1        1 MOL      0.030750
    122 H56         2.4130   -0.8680   -1.1930 ho        1 MOL      0.334935
    123 H57         2.7850   -4.2940   -1.9620 hc        1 MOL      0.101258
    124 H58         1.4910   -3.1220   -1.6990 hc        1 MOL      0.101258
    125 H59         2.5310   -3.0190   -3.1430 hc        1 MOL      0.101258
    126 N11         6.0870   -2.4670    0.4850 n         1 MOL     -0.344319
    127 C39         7.3740   -1.8000    0.7420 c3        1 MOL     -0.088891
    128 C40         7.4460   -0.3850    0.2340 c         1 MOL      0.110781
    129 O19         7.9900    0.4950    0.9670 o         1 MOL     -0.467821
    130 C41         8.5430   -2.5120    0.1000 c3        1 MOL      0.241446
    131 C42         8.5640   -4.0490    0.5040 c3        1 MOL     -0.583846
    132 O20         8.4120   -2.5640   -1.3310 oh        1 MOL     -0.553834
    133 H60         6.0750   -3.4120    0.1260 hn        1 MOL      0.253800
    134 H61         7.5210   -1.7870    1.8250 h1        1 MOL      0.153264
    135 H62         9.4840   -1.9990    0.2870 h1        1 MOL      0.087568
    136 H63         9.2210   -2.3470   -1.7910 ho        1 MOL      0.324422
    137 H64         8.5980   -4.0650    1.5950 hc        1 MOL      0.174294
    138 H65         7.7450   -4.5920    0.0330 hc        1 MOL      0.174294
    139 H66         9.5010   -4.5640    0.3130 hc        1 MOL      0.174294
    140 N12         6.8740   -0.1410   -0.9270 n         1 MOL      0.225508
    141 C43         6.7900    1.1830   -1.4820 c3        1 MOL      0.065168
    142 C44         5.9160    2.1460   -0.6130 c         1 MOL      0.280149
    143 O21         6.3930    3.1440   -0.1880 o         1 MOL     -0.456931
    144 C45         6.3770    1.0950   -2.9820 c3        1 MOL     -0.320315
    145 C46         6.8980   -0.0250   -3.8200 c3        1 MOL      0.224299
    146 C47         8.3750   -0.1700   -3.8160 c3        1 MOL     -0.230253
    147 C48         8.6960   -1.4880   -4.5410 c3        1 MOL      0.141861
    148 N13        10.1780   -1.4440   -4.8700 n4        1 MOL     -0.197725
    149 H67         6.6110   -0.9770   -1.4400 hn        1 MOL      0.139320
    150 H68         7.7810    1.6170   -1.4040 h1        1 MOL      0.030668
    151 H69         6.7200    2.0180   -3.4520 hc        1 MOL      0.107271
    152 H70         5.3030    0.9860   -3.1300 hc        1 MOL      0.107271
    153 H71         6.3790    0.0640   -4.7810 hc        1 MOL     -0.003488
    154 H72         6.4940   -0.9300   -3.3650 hc        1 MOL     -0.003488
    155 H73         8.8140   -0.2480   -2.8200 hc        1 MOL      0.061448
    156 H74         8.8280    0.5680   -4.4720 hc        1 MOL      0.061448
    157 H75         8.1150   -1.4990   -5.4630 hx        1 MOL      0.046046
    158 H76         8.5130   -2.4280   -4.0310 hx        1 MOL      0.046046
    159 H77        10.4120   -2.0770   -5.6140 hn        1 MOL      0.246281
    160 H78        10.5120   -0.5140   -5.0690 hn        1 MOL      0.246281
    161 H79        10.6660   -1.6690   -4.0160 hn        1 MOL      0.246281
    162 N14         4.7260    1.7080   -0.0950 n         1 MOL     -0.053238
    163 C49         3.8230    2.4340    0.8000 c3        1 MOL     -0.028092
    164 C50         4.3120    2.7040    2.1720 c         1 MOL      0.385202
    165 O22         4.0620    3.7900    2.7340 o         1 MOL     -0.572421
    166 C51         2.4440    1.7500    0.7020 c3        1 MOL     -0.056451
    167 C52         1.6910    1.8090   -0.6090 c3        1 MOL     -0.153898
    168 C53         0.4520    0.9330   -0.4980 c         1 MOL      0.768795
    169 O23        -0.6140    1.4310   -0.9050 o         1 MOL     -0.719355
    170 O24         0.5430   -0.2950   -0.3360 o         1 MOL     -0.719355
    171 H80         4.5180    0.7360   -0.2880 hn        1 MOL     -0.059429
    172 H81         3.6060    3.4290    0.3970 h1        1 MOL      0.081368
    173 H82         1.7420    2.0230    1.4850 hc        1 MOL      0.069653
    174 H83         2.5810    0.6860    0.9280 hc        1 MOL      0.069653
    175 H84         2.3080    1.3090   -1.3610 hc        1 MOL      0.016139
    176 H85         1.3830    2.7990   -0.9350 hc        1 MOL      0.016139
    177 N15         5.0480    1.7770    2.7430 n         1 MOL      0.015534
    178 C54         5.8640    2.0770    3.9360 c3        1 MOL     -0.299264
    179 H86         5.4600    1.5410    4.7950 h1        1 MOL      0.106218
    180 H87         6.8920    1.7610    3.7610 h1        1 MOL      0.106218
    181 H88         5.8400    3.1490    4.1320 h1        1 MOL      0.106218
    182 H89         4.9640    0.7990    2.5060 hn        1 MOL      0.156209
    183 Ca1        -1.8920   -0.8790   -1.1790 Ca        1 MOL      1.713631
    184 O25        -0.9810   -3.6360   -1.7960 oh        1 MOL     -0.792480
    185 H90        -1.4820   -4.3340   -1.3890 ho        1 MOL      0.393577
    186 H91        -1.0890   -3.7870   -2.7410 ho        1 MOL      0.393577
    187 O26        -0.2120   -1.2100   -3.1090 oh        1 MOL     -0.792480
    188 H92        -0.3670   -1.0990   -4.0560 ho        1 MOL      0.393577
    189 H93         0.4140   -1.9330   -3.0600 ho        1 MOL      0.393577
@<TRIPOS>BOND
     1    1    2 1   
     2    1    4 1   
     3    1    5 1   
     4    1    6 1   
     5    2    3 2   
     6    2    7 1   
     7    7    8 1   
     8    7   15 1   
     9    8    9 1   
    10    8   11 1   
    11    8   16 1   
    12    9   10 2   
    13    9   19 1   
    14   11   12 1   
    15   11   17 1   
    16   11   18 1   
    17   12   13 1   
    18   12   14 1   
    19   19   20 1   
    20   19   28 1   
    21   20   21 1   
    22   20   23 1   
    23   20   29 1   
    24   21   22 2   
    25   21   41 1   
    26   23   24 1   
    27   23   30 1   
    28   23   31 1   
    29   24   25 1   
    30   24   32 1   
    31   24   33 1   
    32   25   26 1   
    33   25   34 1   
    34   25   35 1   
    35   26   27 1   
    36   26   36 1   
    37   26   37 1   
    38   27   38 1   
    39   27   39 1   
    40   27   40 1   
    41   41   42 1   
    42   41   49 1   
    43   42   43 1   
    44   42   45 1   
    45   42   50 1   
    46   43   44 2   
    47   43   53 1   
    48   45   46 1   
    49   45   51 1   
    50   45   52 1   
    51   46   47 1   
    52   46   48 1   
    53   53   54 1   
    54   53   57 1   
    55   54   55 1   
    56   54   58 1   
    57   54   59 1   
    58   55   56 2   
    59   55   60 1   
    60   60   61 1   
    61   60   68 1   
    62   61   62 1   
    63   61   64 1   
    64   61   69 1   
    65   62   63 2   
    66   62   72 1   
    67   64   65 1   
    68   64   70 1   
    69   64   71 1   
    70   65   66 1   
    71   65   67 1   
    72   72   73 1   
    73   72   76 1   
    74   73   74 1   
    75   73   77 1   
    76   73   78 1   
    77   74   75 2   
    78   74   79 1   
    79   79   80 1   
    80   79   86 1   
    81   80   81 1   
    82   80   83 1   
    83   80   87 1   
    84   81   82 2   
    85   81   93 1   
    86   83   84 1   
    87   83   85 1   
    88   83   88 1   
    89   84   90 1   
    90   84   91 1   
    91   84   92 1   
    92   85   89 1   
    93   93   94 1   
    94   93  101 1   
    95   94   95 1   
    96   94   97 1   
    97   94  102 1   
    98   95   96 2   
    99   95  112 1   
   100   97   98 1   
   101   97   99 1   
   102   97  103 1   
   103   98  100 1   
   104   98  104 1   
   105   98  105 1   
   106   99  106 1   
   107   99  107 1   
   108   99  108 1   
   109  100  109 1   
   110  100  110 1   
   111  100  111 1   
   112  112  113 1   
   113  112  119 1   
   114  113  114 1   
   115  113  116 1   
   116  113  120 1   
   117  114  115 2   
   118  114  126 1   
   119  116  117 1   
   120  116  118 1   
   121  116  121 1   
   122  117  123 1   
   123  117  124 1   
   124  117  125 1   
   125  118  122 1   
   126  126  127 1   
   127  126  133 1   
   128  127  128 1   
   129  127  130 1   
   130  127  134 1   
   131  128  129 2   
   132  128  140 1   
   133  130  131 1   
   134  130  132 1   
   135  130  135 1   
   136  131  137 1   
   137  131  138 1   
   138  131  139 1   
   139  132  136 1   
   140  140  141 1   
   141  140  149 1   
   142  141  142 1   
   143  141  144 1   
   144  141  150 1   
   145  142  143 2   
   146  142  162 1   
   147  144  145 1   
   148  144  151 1   
   149  144  152 1   
   150  145  146 1   
   151  145  153 1   
   152  145  154 1   
   153  146  147 1   
   154  146  155 1   
   155  146  156 1   
   156  147  148 1   
   157  147  157 1   
   158  147  158 1   
   159  148  159 1   
   160  148  160 1   
   161  148  161 1   
   162  162  163 1   
   163  162  171 1   
   164  163  164 1   
   165  163  166 1   
   166  163  172 1   
   167  164  165 2   
   168  164  177 1   
   169  166  167 1   
   170  166  173 1   
   171  166  174 1   
   172  167  168 1   
   173  167  175 1   
   174  167  176 1   
   175  168  169 1   
   176  168  170 1   
   177  177  178 1   
   178  177  182 1   
   179  178  179 1   
   180  178  180 1   
   181  178  181 1   
   182  184  185 1   
   183  184  186 1   
   184  187  188 1   
   185  187  189 1   
@<TRIPOS>SUBSTRUCTURE
     1 MOL         1 TEMP              0 ****  ****    0 ROOT
