@<TRIPOS>MOLECULE
MOL
  183   181     1     0     0
SMALL
resp


@<TRIPOS>ATOM
      1 C1         -1.3430    0.9810    6.6240 c3        1 MOL     -0.188290
      2 C2         -1.3810    0.9500    5.0500 c         1 MOL      0.808992
      3 O1         -0.4780    1.4250    4.3820 o         1 MOL     -0.604766
      4 H1         -1.4730   -0.0310    7.0110 hc        1 MOL      0.032737
      5 H2         -0.3830    1.3750    6.9580 hc        1 MOL      0.032737
      6 H3         -2.1470    1.6170    6.9950 hc        1 MOL      0.032737
      7 N1         -2.5510    0.5090    4.4940 n         1 MOL     -0.762245
      8 C3         -2.9030    0.8300    3.0980 c3        1 MOL      0.077002
      9 C4         -3.3350    2.2820    2.9510 c         1 MOL      0.727229
     10 O2         -4.0870    2.8820    3.7200 o         1 MOL     -0.594655
     11 C5         -4.0310   -0.1720    2.7200 c3        1 MOL     -0.077938
     12 C6         -4.7100    0.1400    1.4310 c         1 MOL      0.518990
     13 O3         -5.9520    0.2890    1.5290 o         1 MOL     -0.620691
     14 O4         -3.9470    0.4710    0.4920 o         1 MOL     -0.620691
     15 H4         -3.2660    0.1580    5.1230 hn        1 MOL      0.355856
     16 H5         -2.0240    0.7030    2.4680 h1        1 MOL      0.092250
     17 H6         -4.6870   -0.3110    3.5760 hc        1 MOL      0.015579
     18 H7         -3.5110   -1.1160    2.5610 hc        1 MOL      0.015579
     19 N2         -2.6610    2.9200    1.9660 n         1 MOL     -0.534061
     20 C7         -2.7860    4.3190    1.7280 c3        1 MOL     -0.043116
     21 C8         -3.9500    4.5840    0.7590 c         1 MOL      0.508330
     22 O5         -4.6530    5.5750    0.8940 o         1 MOL     -0.621525
     23 C9         -1.4470    5.0170    1.2480 c3        1 MOL      0.297275
     24 C10        -0.3660    4.7790    2.3170 c3        1 MOL      0.151802
     25 C11        -1.7140    6.5340    1.0270 c3        1 MOL     -0.346366
     26 C12         1.0500    5.3040    1.9970 c3        1 MOL     -0.283485
     27 H8         -2.1010    2.3740    1.3290 hn        1 MOL      0.238687
     28 H9         -3.2090    4.8340    2.5920 h1        1 MOL      0.063083
     29 H10        -1.1070    4.6100    0.2980 hc        1 MOL     -0.004486
     30 H11        -0.3580    3.7100    2.5460 hc        1 MOL     -0.038540
     31 H12        -0.7930    5.3180    3.1550 hc        1 MOL     -0.038540
     32 H13        -2.6430    6.8240    0.5320 hc        1 MOL      0.067454
     33 H14        -1.6880    7.0170    1.9980 hc        1 MOL      0.067454
     34 H15        -0.9280    6.9760    0.4160 hc        1 MOL      0.067454
     35 H16         1.3580    4.9000    1.0310 hc        1 MOL      0.055231
     36 H17         0.9030    6.3840    1.9960 hc        1 MOL      0.055231
     37 H18         1.6250    4.9310    2.8390 hc        1 MOL      0.055231
     38 N3         -4.0640    3.8050   -0.2990 n         1 MOL     -0.167821
     39 C13        -4.9160    4.0700   -1.4680 c3        1 MOL      0.055174
     40 C14        -6.1320    3.0620   -1.5480 c         1 MOL      0.443469
     41 O6         -6.7380    2.9120   -2.6590 o         1 MOL     -0.552519
     42 C15        -4.0420    4.1430   -2.7460 c3        1 MOL     -0.219109
     43 C16        -2.9920    3.0470   -2.9040 c         1 MOL      0.715413
     44 O7         -1.8310    3.4110   -3.2970 o         1 MOL     -0.707838
     45 O8         -3.1660    1.9130   -2.4160 o         1 MOL     -0.707838
     46 H19        -3.4870    2.9730   -0.3440 hn        1 MOL      0.136947
     47 H20        -5.3810    5.0490   -1.3470 h1        1 MOL      0.072537
     48 H21        -3.4840    5.0530   -2.5410 hc        1 MOL      0.043348
     49 H22        -4.6760    4.2590   -3.6220 hc        1 MOL      0.043348
     50 N4         -6.5710    2.5050   -0.4700 n         1 MOL     -0.360126
     51 C17        -7.8790    1.9510   -0.2630 c3        1 MOL     -0.181232
     52 C18        -8.1900    0.5960   -0.9220 c         1 MOL      0.509979
     53 O9         -9.3330    0.1920   -0.9590 o         1 MOL     -0.608021
     54 H23        -5.9460    2.4790    0.3120 hn        1 MOL      0.305253
     55 H24        -8.5900    2.6010   -0.7550 h1        1 MOL      0.108741
     56 H25        -8.2340    1.7350    0.7430 h1        1 MOL      0.108741
     57 N5         -7.1960   -0.0560   -1.5200 n         1 MOL     -0.125230
     58 C19        -7.3810   -1.3530   -2.1890 c3        1 MOL     -0.071913
     59 C20        -7.4140   -2.6450   -1.2740 c         1 MOL      0.438976
     60 O10        -7.7040   -3.7350   -1.7100 o         1 MOL     -0.544718
     61 C21        -6.2810   -1.5530   -3.2190 c3        1 MOL     -0.216053
     62 C22        -4.8520   -1.3970   -2.7400 c         1 MOL      0.722241
     63 O11        -3.9680   -0.9050   -3.5270 o         1 MOL     -0.732984
     64 O12        -4.5660   -1.6440   -1.5320 o         1 MOL     -0.732984
     65 H26        -6.2400    0.2420   -1.3670 hn        1 MOL      0.179910
     66 H27        -8.3870   -1.3540   -2.6060 h1        1 MOL      0.098066
     67 H28        -6.4530   -0.8020   -3.9930 hc        1 MOL      0.058787
     68 H29        -6.3100   -2.5500   -3.6710 hc        1 MOL      0.058787
     69 N6         -7.1000   -2.4340    0.0200 n         1 MOL     -0.185345
     70 C23        -7.0200   -3.4470    1.0250 c3        1 MOL     -0.192266
     71 C24        -5.7020   -4.2810    1.0620 c         1 MOL      0.570498
     72 O13        -5.8240   -5.3550    1.6290 o         1 MOL     -0.593231
     73 H30        -6.9080   -1.4980    0.3320 hn        1 MOL      0.213295
     74 H31        -7.8790   -4.1070    0.8650 h1        1 MOL      0.084700
     75 H32        -7.1930   -2.9070    1.9560 h1        1 MOL      0.084700
     76 N7         -4.5810   -3.8280    0.5310 n         1 MOL     -0.290652
     77 C25        -3.3110   -4.4640    0.6330 c3        1 MOL      0.040816
     78 C26        -2.2090   -3.3940    0.8550 c         1 MOL      0.604653
     79 O14        -2.3590   -2.2100    0.5510 o         1 MOL     -0.753910
     80 C27        -3.0680   -5.4640   -0.5490 c3        1 MOL     -0.226822
     81 C28        -3.3330   -4.7750   -1.9210 c3        1 MOL     -0.016101
     82 C29        -2.1300   -3.9630   -2.5130 c         1 MOL      0.474561
     83 N8         -1.5540   -4.4590   -3.5650 n         1 MOL     -0.695450
     84 O15        -1.7780   -2.8550   -2.0840 o         1 MOL     -0.467766
     85 H33        -4.6170   -2.9590    0.0100 hn        1 MOL      0.330563
     86 H34        -3.2850   -5.1010    1.5110 h1        1 MOL      0.032830
     87 H35        -3.8160   -6.2550   -0.5040 hc        1 MOL      0.075737
     88 H36        -2.0720   -5.9110   -0.5920 hc        1 MOL      0.075737
     89 H37        -4.2190   -4.1440   -1.9380 hc        1 MOL      0.045769
     90 H38        -3.6200   -5.5470   -2.6300 hc        1 MOL      0.045769
     91 H39        -1.8340   -5.2940   -4.0480 hn        1 MOL      0.335312
     92 H40        -0.8910   -3.8820   -4.0610 hn        1 MOL      0.335312
     93 N9         -1.0140   -3.8720    1.2590 n         1 MOL     -0.424050
     94 C30         0.0670   -3.0230    1.7380 c3        1 MOL      0.014491
     95 C31         1.2480   -3.4380    0.8970 c         1 MOL      0.391411
     96 O16         1.7290   -4.4830    1.2390 o         1 MOL     -0.551345
     97 C32         0.2500   -3.0700    3.2170 c3        1 MOL      0.327738
     98 C33         1.3150   -1.9460    3.5940 c3        1 MOL     -0.357001
     99 C34        -1.0070   -2.7840    3.9890 c3        1 MOL     -0.357001
    100 H41        -0.9300   -4.8440    1.4970 hn        1 MOL      0.268125
    101 H42        -0.1520   -1.9840    1.4880 h1        1 MOL      0.195856
    102 H43         0.6900   -4.0210    3.5280 hc        1 MOL     -0.038692
    103 H44         0.9490   -0.9960    3.1940 hc        1 MOL      0.070491
    104 H45         1.4180   -1.9520    4.6760 hc        1 MOL      0.070491
    105 H46         2.2740   -2.1520    3.1170 hc        1 MOL      0.070491
    106 H47        -1.6670   -2.0750    3.4970 hc        1 MOL      0.070491
    107 H48        -1.6400   -3.6670    4.0690 hc        1 MOL      0.070491
    108 H49        -0.7090   -2.4690    4.9860 hc        1 MOL      0.070491
    109 N10         1.7690   -2.6010   -0.0420 n         1 MOL     -0.167644
    110 C35         2.9670   -2.7630   -0.9150 c3        1 MOL      0.202343
    111 C36         4.2770   -2.2830   -0.3080 c         1 MOL      0.460374
    112 O17         4.3000   -1.8050    0.8140 o         1 MOL     -0.383202
    113 C37         2.6980   -2.3670   -2.3620 c3        1 MOL     -0.352562
    114 C38         3.2790   -1.0120   -2.7070 c         1 MOL      0.608619
    115 N11         2.6170    0.0550   -2.2810 n         1 MOL     -0.744325
    116 O18         4.3280   -0.9000   -3.3160 o         1 MOL     -0.589845
    117 H50         1.2160   -1.8110   -0.3330 hn        1 MOL      0.038231
    118 H51         3.1440   -3.8420   -0.8700 h1        1 MOL      0.027786
    119 H52         1.6250   -2.4650   -2.5380 hc        1 MOL      0.101410
    120 H53         3.3020   -3.1110   -2.8860 hc        1 MOL      0.101410
    121 H54         1.7670   -0.0310   -1.7370 hn        1 MOL      0.404370
    122 H55         2.9440    0.8770   -2.7540 hn        1 MOL      0.404370
    123 N12         5.4340   -2.4140   -1.0170 n         1 MOL     -0.705706
    124 C39         6.7590   -1.9710   -0.4240 c3        1 MOL      0.480384
    125 C40         7.0020   -0.4600   -0.2810 c         1 MOL      0.713449
    126 O19         7.4790   -0.0480    0.7610 o         1 MOL     -0.551208
    127 C41         7.9000   -2.4780   -1.2530 c3        1 MOL     -0.394844
    128 C42         9.3070   -2.1280   -0.6560 ca        1 MOL      0.189256
    129 C43         9.6610   -2.6930    0.6080 ca        1 MOL     -0.277413
    130 C44        10.2490   -1.3590   -1.3970 ca        1 MOL     -0.277413
    131 C45        10.8970   -2.3610    1.1340 ca        1 MOL     -0.184697
    132 C46        11.5350   -1.0660   -0.8900 ca        1 MOL     -0.184697
    133 C47        11.8240   -1.5890    0.3480 ca        1 MOL      0.285202
    134 O20        13.0320   -1.3990    0.9040 oh        1 MOL     -0.506279
    135 H56         5.5070   -2.8140   -1.9460 hn        1 MOL      0.348632
    136 H57         6.9270   -2.4070    0.5650 h1        1 MOL     -0.015260
    137 H58         7.7820   -2.0800   -2.2620 hc        1 MOL      0.090865
    138 H59         7.9590   -3.5550   -1.2990 hc        1 MOL      0.090865
    139 H60         8.9520   -3.2600    1.2000 ha        1 MOL      0.166809
    140 H61         9.8970   -0.9270   -2.3230 ha        1 MOL      0.166809
    141 H62        11.0960   -2.7120    2.1400 ha        1 MOL      0.138510
    142 H63        12.2760   -0.4660   -1.3930 ha        1 MOL      0.138510
    143 H64        13.6120   -0.9140    0.3180 ho        1 MOL      0.362138
    144 N13         6.4510    0.2930   -1.2690 n         1 MOL     -0.769354
    145 C48         6.4380    1.7660   -1.1250 c3        1 MOL      0.242233
    146 C49         5.4640    2.2250   -0.0220 c         1 MOL      0.192234
    147 O21         5.6540    3.2420    0.6490 o         1 MOL     -0.482574
    148 C50         5.8950    2.3900   -2.4860 c3        1 MOL     -0.001231
    149 C51         6.0730    3.8920   -2.5020 c3        1 MOL     -0.262329
    150 C52         6.3670    4.5660   -3.8640 c         1 MOL      0.755450
    151 O22         7.0820    5.6110   -3.9940 o         1 MOL     -0.755755
    152 O23         5.8360    4.0840   -4.8610 o         1 MOL     -0.755755
    153 H65         6.0950   -0.0610   -2.1410 hn        1 MOL      0.366819
    154 H66         7.4670    1.9830   -0.8630 h1        1 MOL      0.061318
    155 H67         4.8450    2.1150   -2.5600 hc        1 MOL      0.028652
    156 H68         6.5100    1.9760   -3.2840 hc        1 MOL      0.028652
    157 H69         6.9370    4.1960   -1.9040 hc        1 MOL      0.033999
    158 H70         5.1490    4.2370   -2.0380 hc        1 MOL      0.033999
    159 N14         4.4940    1.3600    0.3320 n         1 MOL      0.162704
    160 C53         3.6750    1.6520    1.5120 c3        1 MOL     -0.093137
    161 C54         4.4280    1.2570    2.7540 c         1 MOL      0.420719
    162 O24         4.3870    1.9890    3.7460 o         1 MOL     -0.560336
    163 C55         2.3080    0.9540    1.4820 c3        1 MOL      0.249849
    164 C56         1.3250    1.6620    0.4930 c3        1 MOL     -0.115631
    165 C57         0.0330    0.9490    0.0030 c         1 MOL      0.457857
    166 O25        -1.0930    1.5150   -0.0090 o         1 MOL     -0.580632
    167 O26         0.2520   -0.1550   -0.5550 o         1 MOL     -0.580632
    168 H71         4.3110    0.5280   -0.2110 hn        1 MOL     -0.139885
    169 H72         3.3920    2.7000    1.4660 h1        1 MOL      0.079997
    170 H73         2.0090    1.1340    2.5130 hc        1 MOL     -0.016197
    171 H74         2.3770   -0.1220    1.2990 hc        1 MOL     -0.016197
    172 H75         1.8880    1.8840   -0.4170 hc        1 MOL      0.055920
    173 H76         1.0420    2.6360    0.8970 hc        1 MOL      0.055920
    174 N15         5.1300    0.1390    2.7750 n         1 MOL     -0.028705
    175 C58         5.8060   -0.4170    3.9670 c3        1 MOL     -0.295527
    176 H77         5.2730   -1.3060    4.3050 h1        1 MOL      0.099718
    177 H78         6.8310   -0.6840    3.7130 h1        1 MOL      0.099718
    178 H79         5.8110    0.3280    4.7630 h1        1 MOL      0.099718
    179 H80         5.2460   -0.4420    1.9560 hn        1 MOL      0.068724
    180 Ca1        -2.2980   -0.3340   -1.4240 Ca        1 MOL      1.768561
    181 O27        -0.6830   -0.3360   -3.5490 oh        1 MOL     -0.888118
    182 H81        -0.3680   -1.1000   -4.0280 ho        1 MOL      0.421972
    183 H82        -0.3530    0.4110   -4.0530 ho        1 MOL      0.421972
@<TRIPOS>BOND
     1    1    2 1   
     2    1    4 1   
     3    1    5 1   
     4    1    6 1   
     5    2    3 2   
     6    2    7 1   
     7    7    8 1   
     8    7   15 1   
     9    8    9 1   
    10    8   11 1   
    11    8   16 1   
    12    9   10 2   
    13    9   19 1   
    14   11   12 1   
    15   11   17 1   
    16   11   18 1   
    17   12   13 1   
    18   12   14 1   
    19   19   20 1   
    20   19   27 1   
    21   20   21 1   
    22   20   23 1   
    23   20   28 1   
    24   21   22 2   
    25   21   38 1   
    26   23   24 1   
    27   23   25 1   
    28   23   29 1   
    29   24   26 1   
    30   24   30 1   
    31   24   31 1   
    32   25   32 1   
    33   25   33 1   
    34   25   34 1   
    35   26   35 1   
    36   26   36 1   
    37   26   37 1   
    38   38   39 1   
    39   38   46 1   
    40   39   40 1   
    41   39   42 1   
    42   39   47 1   
    43   40   41 2   
    44   40   50 1   
    45   42   43 1   
    46   42   48 1   
    47   42   49 1   
    48   43   44 1   
    49   43   45 1   
    50   50   51 1   
    51   50   54 1   
    52   51   52 1   
    53   51   55 1   
    54   51   56 1   
    55   52   53 2   
    56   52   57 1   
    57   57   58 1   
    58   57   65 1   
    59   58   59 1   
    60   58   61 1   
    61   58   66 1   
    62   59   60 2   
    63   59   69 1   
    64   61   62 1   
    65   61   67 1   
    66   61   68 1   
    67   62   63 1   
    68   62   64 1   
    69   69   70 1   
    70   69   73 1   
    71   70   71 1   
    72   70   74 1   
    73   70   75 1   
    74   71   72 2   
    75   71   76 1   
    76   76   77 1   
    77   76   85 1   
    78   77   78 1   
    79   77   80 1   
    80   77   86 1   
    81   78   79 2   
    82   78   93 1   
    83   80   81 1   
    84   80   87 1   
    85   80   88 1   
    86   81   82 1   
    87   81   89 1   
    88   81   90 1   
    89   82   83 1   
    90   82   84 2   
    91   83   91 1   
    92   83   92 1   
    93   93   94 1   
    94   93  100 1   
    95   94   95 1   
    96   94   97 1   
    97   94  101 1   
    98   95   96 2   
    99   95  109 1   
   100   97   98 1   
   101   97   99 1   
   102   97  102 1   
   103   98  103 1   
   104   98  104 1   
   105   98  105 1   
   106   99  106 1   
   107   99  107 1   
   108   99  108 1   
   109  109  110 1   
   110  109  117 1   
   111  110  111 1   
   112  110  113 1   
   113  110  118 1   
   114  111  112 2   
   115  111  123 1   
   116  113  114 1   
   117  113  119 1   
   118  113  120 1   
   119  114  115 1   
   120  114  116 2   
   121  115  121 1   
   122  115  122 1   
   123  123  124 1   
   124  123  135 1   
   125  124  125 1   
   126  124  127 1   
   127  124  136 1   
   128  125  126 2   
   129  125  144 1   
   130  127  128 1   
   131  127  137 1   
   132  127  138 1   
   133  128  129 ar  
   134  128  130 ar  
   135  129  131 ar  
   136  129  139 1   
   137  130  132 ar  
   138  130  140 1   
   139  131  133 ar  
   140  131  141 1   
   141  132  133 ar  
   142  132  142 1   
   143  133  134 1   
   144  134  143 1   
   145  144  145 1   
   146  144  153 1   
   147  145  146 1   
   148  145  148 1   
   149  145  154 1   
   150  146  147 2   
   151  146  159 1   
   152  148  149 1   
   153  148  155 1   
   154  148  156 1   
   155  149  150 1   
   156  149  157 1   
   157  149  158 1   
   158  150  151 1   
   159  150  152 1   
   160  159  160 1   
   161  159  168 1   
   162  160  161 1   
   163  160  163 1   
   164  160  169 1   
   165  161  162 2   
   166  161  174 1   
   167  163  164 1   
   168  163  170 1   
   169  163  171 1   
   170  164  165 1   
   171  164  172 1   
   172  164  173 1   
   173  165  166 1   
   174  165  167 1   
   175  174  175 1   
   176  174  179 1   
   177  175  176 1   
   178  175  177 1   
   179  175  178 1   
   180  181  182 1   
   181  181  183 1   
@<TRIPOS>SUBSTRUCTURE
     1 MOL         1 TEMP              0 ****  ****    0 ROOT
