@<TRIPOS>MOLECULE
MOL
  175   173     1     0     0
SMALL
resp


@<TRIPOS>ATOM
      1 C1         -0.0730    1.3800    6.3220 c3        1 MOL     -0.364045
      2 C2         -0.4560    1.4060    4.8150 c         1 MOL      0.738848
      3 O1          0.1950    2.0520    4.0280 o         1 MOL     -0.532674
      4 H1         -0.3750    2.3160    6.7890 hc        1 MOL      0.089518
      5 H2         -0.5800    0.5490    6.8110 hc        1 MOL      0.089518
      6 H3          1.0060    1.2570    6.4210 hc        1 MOL      0.089518
      7 N1         -1.6700    0.8970    4.4230 n         1 MOL     -0.702958
      8 C3         -2.2460    1.1280    3.0790 c3        1 MOL      0.069767
      9 C4         -2.7480    2.5830    2.8610 c         1 MOL      0.657417
     10 O2         -3.5450    3.1430    3.6770 o         1 MOL     -0.608192
     11 C5         -3.4620    0.2220    2.8840 c3        1 MOL     -0.124062
     12 C6         -4.1680    0.5580    1.5800 c         1 MOL      0.679799
     13 O3         -3.4430    0.7710    0.6030 o         1 MOL     -0.663796
     14 O4         -5.4040    0.6250    1.5070 o         1 MOL     -0.663796
     15 H4         -2.2950    0.5240    5.1300 hn        1 MOL      0.352560
     16 H5         -1.4900    0.9020    2.3280 h1        1 MOL      0.101879
     17 H6         -4.0900    0.2420    3.7740 hc        1 MOL      0.011722
     18 H7         -3.1850   -0.8220    2.7960 hc        1 MOL      0.011722
     19 N2         -2.1780    3.2330    1.8200 n         1 MOL     -0.435595
     20 C7         -2.3660    4.6880    1.6880 c3        1 MOL      0.274825
     21 C8         -3.1810    5.0420    0.3680 c         1 MOL      0.312237
     22 O5         -3.6400    6.1800    0.2170 o         1 MOL     -0.553035
     23 C9         -0.9470    5.3130    1.6750 c3        1 MOL     -0.456375
     24 H8         -1.6060    2.7630    1.1330 hn        1 MOL      0.318038
     25 H9         -2.9930    5.1430    2.4460 h1        1 MOL      0.028757
     26 H10        -0.4440    5.0900    0.7340 hc        1 MOL      0.116186
     27 H11        -1.0070    6.3790    1.4940 hc        1 MOL      0.116186
     28 H12        -0.3510    4.9940    2.5310 hc        1 MOL      0.116186
     29 N3         -3.2820    4.1160   -0.6170 n         1 MOL     -0.009715
     30 C10        -4.1000    4.2940   -1.8890 c3        1 MOL     -0.059239
     31 C11        -5.4670    3.5700   -1.8730 c         1 MOL      0.525557
     32 O6         -6.3120    3.7950   -2.7170 o         1 MOL     -0.548724
     33 C12        -3.3110    4.0790   -3.2200 c3        1 MOL     -0.229160
     34 C13        -2.6700    2.7300   -3.2780 c         1 MOL      0.882887
     35 O7         -2.8260    1.8700   -2.4310 o         1 MOL     -0.755101
     36 O8         -2.0260    2.4910   -4.3100 o         1 MOL     -0.755101
     37 H13        -2.7320    3.2760   -0.5110 hn        1 MOL      0.013633
     38 H14        -4.3330    5.3550   -1.8240 h1        1 MOL      0.086719
     39 H15        -2.5220    4.8140   -3.3950 hc        1 MOL      0.055401
     40 H16        -4.0230    4.0660   -4.0440 hc        1 MOL      0.055401
     41 N4         -5.7900    2.8850   -0.7430 n         1 MOL     -0.229582
     42 C14        -7.1090    2.4420   -0.3460 c3        1 MOL     -0.301691
     43 C15        -7.6400    1.1050   -0.8230 c         1 MOL      0.637003
     44 O9         -8.8100    0.7690   -0.7230 o         1 MOL     -0.622981
     45 H17        -5.0220    2.4660   -0.2350 hn        1 MOL      0.136131
     46 H18        -7.7160    3.2840   -0.6980 h1        1 MOL      0.130270
     47 H19        -7.1070    2.3590    0.7440 h1        1 MOL      0.130270
     48 N5         -6.7410    0.1920   -1.1730 n         1 MOL     -0.221866
     49 C16        -7.0230   -1.1070   -1.8150 c3        1 MOL     -0.064622
     50 C17        -7.0280   -2.2850   -0.7700 c         1 MOL      0.451152
     51 O10        -7.1940   -3.4350   -1.1670 o         1 MOL     -0.556526
     52 C18        -6.1430   -1.3640   -3.0840 c3        1 MOL     -0.293885
     53 C19        -4.7130   -1.6810   -2.8260 c         1 MOL      0.589743
     54 N6         -4.0810   -2.5140   -3.5580 n         1 MOL     -0.589002
     55 O11        -4.0410   -1.1180   -1.9630 o         1 MOL     -0.513865
     56 H20        -5.7640    0.3840   -0.9950 hn        1 MOL      0.157935
     57 H21        -8.0130   -1.1530   -2.2560 h1        1 MOL      0.129257
     58 H22        -6.1590   -0.5360   -3.7900 hc        1 MOL      0.108090
     59 H23        -6.5920   -2.2490   -3.5360 hc        1 MOL      0.108090
     60 H24        -4.5370   -2.9430   -4.3550 hn        1 MOL      0.302905
     61 H25        -3.0930   -2.6470   -3.4270 hn        1 MOL      0.302905
     62 N7         -6.7030   -2.0540    0.4830 n         1 MOL     -0.157257
     63 C20        -6.7230   -3.0020    1.5830 c3        1 MOL     -0.305164
     64 C21        -5.4580   -3.8430    1.5670 c         1 MOL      0.504810
     65 O12        -5.3190   -4.7830    2.3930 o         1 MOL     -0.592468
     66 H26        -6.3280   -1.1410    0.6850 hn        1 MOL      0.196633
     67 H27        -7.6200   -3.6290    1.5460 h1        1 MOL      0.154968
     68 H28        -6.6590   -2.4930    2.5470 h1        1 MOL      0.154968
     69 N8         -4.4430   -3.4720    0.7790 n         1 MOL     -0.148891
     70 C22        -3.0700   -4.0740    0.7990 c3        1 MOL      0.035889
     71 C23        -1.9430   -3.0670    0.7650 c         1 MOL      0.502647
     72 O13        -2.1170   -1.8710    0.5310 o         1 MOL     -0.562527
     73 C24        -2.9410   -5.0920   -0.2990 c3        1 MOL      0.140645
     74 C25        -4.0260   -6.1780   -0.2620 c3        1 MOL     -0.230983
     75 O14        -2.9150   -4.5790   -1.6310 oh        1 MOL     -0.587496
     76 H29        -4.6190   -2.6880    0.1740 hn        1 MOL      0.183097
     77 H30        -2.9460   -4.5680    1.7600 h1        1 MOL      0.055882
     78 H31        -2.0610   -5.6740   -0.0340 h1        1 MOL      0.042619
     79 H32        -3.5170   -5.1280   -2.1360 ho        1 MOL      0.389511
     80 H33        -3.9000   -7.0160   -0.9600 hc        1 MOL      0.065081
     81 H34        -3.9890   -6.6770    0.7130 hc        1 MOL      0.065081
     82 H35        -5.0330   -5.8100   -0.4310 hc        1 MOL      0.065081
     83 N9         -0.7610   -3.5580    1.0270 n         1 MOL     -0.431220
     84 C26         0.4960   -2.7720    1.2350 c3        1 MOL      0.127339
     85 C27         1.3870   -2.9110   -0.0090 c         1 MOL      0.342359
     86 O15         1.5130   -4.0570   -0.4640 o         1 MOL     -0.557711
     87 C28         1.0690   -3.2350    2.5800 c3        1 MOL      0.243621
     88 C29         0.1680   -2.6120    3.6920 c3        1 MOL     -0.019015
     89 C30         2.5820   -2.9230    2.7400 c3        1 MOL     -0.163895
     90 C31         0.6580   -3.1730    5.0690 c3        1 MOL     -0.181755
     91 H36        -0.7700   -4.5650    1.0570 hn        1 MOL      0.250150
     92 H37         0.3070   -1.7150    1.3760 h1        1 MOL      0.017779
     93 H38         0.9820   -4.3240    2.5790 hc        1 MOL     -0.041357
     94 H39        -0.8420   -3.0090    3.5900 hc        1 MOL      0.030437
     95 H40         0.1930   -1.5240    3.7210 hc        1 MOL      0.030437
     96 H41         2.6480   -1.8350    2.7500 hc        1 MOL      0.019624
     97 H42         3.0870   -3.4780    3.5340 hc        1 MOL      0.019624
     98 H43         3.1080   -3.1190    1.8070 hc        1 MOL      0.019624
     99 H44         1.6910   -2.9190    5.3380 hc        1 MOL      0.030855
    100 H45        -0.0120   -2.8850    5.8820 hc        1 MOL      0.030855
    101 H46         0.5920   -4.2500    4.9720 hc        1 MOL      0.030855
    102 N10         1.9390   -1.8110   -0.4970 n         1 MOL     -0.135484
    103 C32         3.0740   -1.6020   -1.4880 c3        1 MOL      0.046575
    104 C33         4.5650   -1.3130   -0.9780 c         1 MOL      0.510844
    105 O16         4.7180   -1.0720    0.2220 o         1 MOL     -0.446414
    106 C34         2.7010   -0.4240   -2.4240 c3        1 MOL     -0.196719
    107 C35         1.2740   -0.4190   -2.9630 c         1 MOL      0.780734
    108 O17         0.9580   -1.2360   -3.8580 o         1 MOL     -0.734567
    109 O18         0.3150    0.3960   -2.6510 o         1 MOL     -0.734567
    110 H47         1.7030   -1.0140    0.0800 hn        1 MOL      0.151788
    111 H48         3.1680   -2.5280   -2.0650 h1        1 MOL      0.048609
    112 H49         3.4550   -0.3800   -3.2090 hc        1 MOL      0.049176
    113 H50         3.0180    0.4290   -1.8190 hc        1 MOL      0.049176
    114 N11         5.5750   -1.2110   -1.8780 n         1 MOL     -0.740598
    115 C36         6.9520   -0.9380   -1.4360 c3        1 MOL      0.558455
    116 C37         7.0400    0.4510   -0.8290 c         1 MOL      0.145106
    117 O19         7.6860    0.6420    0.1570 o         1 MOL     -0.476019
    118 C38         8.0520   -1.3240   -2.4600 c3        1 MOL     -0.233425
    119 C39         9.4330   -1.3320   -2.0330 ca        1 MOL      0.180324
    120 C40         9.8800   -2.0140   -0.8730 ca        1 MOL     -0.201496
    121 C41        10.4440   -0.7200   -2.7950 ca        1 MOL     -0.201496
    122 C42        11.2590   -2.1150   -0.6040 ca        1 MOL     -0.094031
    123 C43        11.8000   -0.7120   -2.4020 ca        1 MOL     -0.094031
    124 C44        12.2160   -1.4230   -1.3190 ca        1 MOL     -0.105191
    125 H51         5.3650   -1.3910   -2.8440 hn        1 MOL      0.342949
    126 H52         7.1350   -1.6440   -0.6290 h1        1 MOL      0.023103
    127 H53         8.0460   -0.5540   -3.2310 hc        1 MOL      0.050832
    128 H54         7.8210   -2.2730   -2.9300 hc        1 MOL      0.050832
    129 H55         9.1080   -2.4990   -0.2870 ha        1 MOL      0.115265
    130 H56        10.2070   -0.0990   -3.6560 ha        1 MOL      0.115265
    131 H57        11.5410   -2.6820    0.2710 ha        1 MOL      0.101115
    132 H58        12.5680   -0.3020   -3.0300 ha        1 MOL      0.101115
    133 H59        13.2760   -1.4500   -1.1040 ha        1 MOL      0.100098
    134 N12         6.1780    1.4120   -1.1900 n         1 MOL      0.203024
    135 C45         6.2720    2.6760   -0.5180 c3        1 MOL      0.035366
    136 C46         5.7510    2.6200    0.9110 c         1 MOL      0.258883
    137 O20         6.3300    3.3020    1.7990 o         1 MOL     -0.506214
    138 C47         5.5120    3.6670   -1.4650 c3        1 MOL     -0.114576
    139 C48         5.9210    3.0720   -2.8370 c3        1 MOL      0.001926
    140 C49         5.6460    1.6190   -2.5450 c3        1 MOL     -0.251536
    141 H60         7.2980    3.0490   -0.4580 h1        1 MOL      0.049270
    142 H61         4.4250    3.6260   -1.3730 hc        1 MOL      0.059000
    143 H62         5.8830    4.6850   -1.3690 hc        1 MOL      0.059000
    144 H63         5.3200    3.4440   -3.6710 hc        1 MOL      0.021103
    145 H64         6.9730    3.2000   -3.0920 hc        1 MOL      0.021103
    146 H65         4.5580    1.5720   -2.5970 h1        1 MOL      0.090563
    147 H66         6.1770    1.0010   -3.2580 h1        1 MOL      0.090563
    148 N13         4.7400    1.8240    1.0530 n         1 MOL     -0.056154
    149 C50         3.9520    1.5880    2.2910 c3        1 MOL     -0.098529
    150 C51         4.7070    0.7560    3.3920 c         1 MOL      0.416950
    151 O21         4.8270    1.0780    4.5520 o         1 MOL     -0.534378
    152 C52         2.5270    1.1160    1.9100 c3        1 MOL      0.094932
    153 C53         1.7750    2.2450    1.0270 c3        1 MOL     -0.459694
    154 C54         0.5040    1.6580    0.4110 c         1 MOL      0.754392
    155 O22         0.3610    0.4090    0.3900 o         1 MOL     -0.699666
    156 O23        -0.3390    2.3860   -0.0950 o         1 MOL     -0.699666
    157 H67         4.4130    1.3900    0.2030 hn        1 MOL      0.141232
    158 H68         3.8560    2.5260    2.8410 h1        1 MOL      0.097489
    159 H69         1.8770    0.9010    2.7490 hc        1 MOL      0.020492
    160 H70         2.5670    0.2020    1.3140 hc        1 MOL      0.020492
    161 H71         2.3740    2.5490    0.1640 hc        1 MOL      0.131060
    162 H72         1.6230    3.0890    1.7000 hc        1 MOL      0.131060
    163 N14         5.3980   -0.2470    2.8530 n         1 MOL     -0.040580
    164 C55         6.4890   -0.9360    3.6580 c3        1 MOL     -0.238808
    165 H73         6.5010   -0.5340    4.6710 h1        1 MOL      0.089271
    166 H74         6.2920   -2.0080    3.6950 h1        1 MOL      0.089271
    167 H75         7.4550   -0.7610    3.1860 h1        1 MOL      0.089271
    168 H76         5.2920   -0.5300    1.8990 hn        1 MOL      0.100831
    169 Ca1        -1.6730    0.0770   -1.2460 Ca        1 MOL      1.675024
    170 O24        -1.7870   -0.1610   -4.5050 oh        1 MOL     -0.898874
    171 H77        -1.9040    0.7550   -4.2820 ho        1 MOL      0.433872
    172 H78        -0.9120   -0.3850   -4.1710 ho        1 MOL      0.433872
    173 O25        -0.8110   -2.2570   -2.1320 oh        1 MOL     -0.898874
    174 H79        -0.2910   -2.1840   -2.9340 ho        1 MOL      0.433872
    175 H80        -0.8370   -3.1910   -1.9430 ho        1 MOL      0.433872
@<TRIPOS>BOND
     1    1    2 1   
     2    1    4 1   
     3    1    5 1   
     4    1    6 1   
     5    2    3 2   
     6    2    7 1   
     7    7    8 1   
     8    7   15 1   
     9    8    9 1   
    10    8   11 1   
    11    8   16 1   
    12    9   10 2   
    13    9   19 1   
    14   11   12 1   
    15   11   17 1   
    16   11   18 1   
    17   12   13 1   
    18   12   14 1   
    19   19   20 1   
    20   19   24 1   
    21   20   21 1   
    22   20   23 1   
    23   20   25 1   
    24   21   22 2   
    25   21   29 1   
    26   23   26 1   
    27   23   27 1   
    28   23   28 1   
    29   29   30 1   
    30   29   37 1   
    31   30   31 1   
    32   30   33 1   
    33   30   38 1   
    34   31   32 2   
    35   31   41 1   
    36   33   34 1   
    37   33   39 1   
    38   33   40 1   
    39   34   35 1   
    40   34   36 1   
    41   41   42 1   
    42   41   45 1   
    43   42   43 1   
    44   42   46 1   
    45   42   47 1   
    46   43   44 2   
    47   43   48 1   
    48   48   49 1   
    49   48   56 1   
    50   49   50 1   
    51   49   52 1   
    52   49   57 1   
    53   50   51 2   
    54   50   62 1   
    55   52   53 1   
    56   52   58 1   
    57   52   59 1   
    58   53   54 1   
    59   53   55 2   
    60   54   60 1   
    61   54   61 1   
    62   62   63 1   
    63   62   66 1   
    64   63   64 1   
    65   63   67 1   
    66   63   68 1   
    67   64   65 2   
    68   64   69 1   
    69   69   70 1   
    70   69   76 1   
    71   70   71 1   
    72   70   73 1   
    73   70   77 1   
    74   71   72 2   
    75   71   83 1   
    76   73   74 1   
    77   73   75 1   
    78   73   78 1   
    79   74   80 1   
    80   74   81 1   
    81   74   82 1   
    82   75   79 1   
    83   83   84 1   
    84   83   91 1   
    85   84   85 1   
    86   84   87 1   
    87   84   92 1   
    88   85   86 2   
    89   85  102 1   
    90   87   88 1   
    91   87   89 1   
    92   87   93 1   
    93   88   90 1   
    94   88   94 1   
    95   88   95 1   
    96   89   96 1   
    97   89   97 1   
    98   89   98 1   
    99   90   99 1   
   100   90  100 1   
   101   90  101 1   
   102  102  103 1   
   103  102  110 1   
   104  103  104 1   
   105  103  106 1   
   106  103  111 1   
   107  104  105 2   
   108  104  114 1   
   109  106  107 1   
   110  106  112 1   
   111  106  113 1   
   112  107  108 1   
   113  107  109 1   
   114  114  115 1   
   115  114  125 1   
   116  115  116 1   
   117  115  118 1   
   118  115  126 1   
   119  116  117 2   
   120  116  134 1   
   121  118  119 1   
   122  118  127 1   
   123  118  128 1   
   124  119  120 ar  
   125  119  121 ar  
   126  120  122 ar  
   127  120  129 1   
   128  121  123 ar  
   129  121  130 1   
   130  122  124 ar  
   131  122  131 1   
   132  123  124 ar  
   133  123  132 1   
   134  124  133 1   
   135  134  135 1   
   136  134  140 1   
   137  135  136 1   
   138  135  138 1   
   139  135  141 1   
   140  136  137 2   
   141  136  148 1   
   142  138  139 1   
   143  138  142 1   
   144  138  143 1   
   145  139  140 1   
   146  139  144 1   
   147  139  145 1   
   148  140  146 1   
   149  140  147 1   
   150  148  149 1   
   151  148  157 1   
   152  149  150 1   
   153  149  152 1   
   154  149  158 1   
   155  150  151 2   
   156  150  163 1   
   157  152  153 1   
   158  152  159 1   
   159  152  160 1   
   160  153  154 1   
   161  153  161 1   
   162  153  162 1   
   163  154  155 1   
   164  154  156 1   
   165  163  164 1   
   166  163  168 1   
   167  164  165 1   
   168  164  166 1   
   169  164  167 1   
   170  170  171 1   
   171  170  172 1   
   172  173  174 1   
   173  173  175 1   
@<TRIPOS>SUBSTRUCTURE
     1 MOL         1 TEMP              0 ****  ****    0 ROOT
