@<TRIPOS>MOLECULE
MOL
  189   185     1     0     0
SMALL
resp


@<TRIPOS>ATOM
      1 C1         -0.3600    2.7370   -5.1500 c3        1 MOL     -0.435028
      2 C2          0.2790    2.5440   -3.7820 c         1 MOL      0.626619
      3 O1         -0.2600    3.0460   -2.7920 o         1 MOL     -0.558673
      4 H1         -1.2490    2.1110   -5.2280 hc        1 MOL      0.121006
      5 H2         -0.6400    3.7830   -5.2770 hc        1 MOL      0.121006
      6 H3          0.3520    2.4550   -5.9280 hc        1 MOL      0.121006
      7 N1          1.4820    1.9410   -3.7390 n         1 MOL     -0.550830
      8 C3          2.1860    1.6630   -2.4470 c3        1 MOL      0.036594
      9 C4          2.9090    2.9380   -1.9200 c         1 MOL      0.436310
     10 O2          4.0980    3.2050   -2.1480 o         1 MOL     -0.571058
     11 C5          3.1910    0.5220   -2.5280 c3        1 MOL     -0.210519
     12 C6          3.7950    0.1190   -1.1820 c         1 MOL      0.553680
     13 O3          4.8460   -0.5760   -1.0920 o         1 MOL     -0.603862
     14 O4          3.4550    0.6190   -0.0850 o         1 MOL     -0.603862
     15 H4          1.9110    1.6570   -4.6100 hn        1 MOL      0.329131
     16 H5          1.4370    1.3190   -1.7360 h1        1 MOL      0.088884
     17 H6          3.9410    0.6650   -3.3110 hc        1 MOL      0.080800
     18 H7          2.6850   -0.4000   -2.8070 hc        1 MOL      0.080800
     19 N2          2.2220    3.6450   -1.0950 n         1 MOL      0.034799
     20 C7          2.6930    4.8610   -0.4390 c3        1 MOL     -0.016849
     21 C8          3.3360    4.6360    0.9790 c         1 MOL      0.541323
     22 O5          3.2850    5.6210    1.7300 o         1 MOL     -0.560625
     23 C9          1.6490    5.9900   -0.5040 c3        1 MOL     -0.036613
     24 C10         1.0000    6.3150   -1.9000 c3        1 MOL      0.040092
     25 C11         1.9960    6.3690   -3.1190 c3        1 MOL     -0.157945
     26 C12         3.0260    7.5490   -2.8990 c3        1 MOL      0.072487
     27 N3          4.0830    7.4410   -3.9440 n4        1 MOL     -0.451111
     28 H8          1.2730    3.3060   -0.9930 hn        1 MOL      0.184291
     29 H9          3.6410    5.2130   -0.8600 h1        1 MOL      0.055348
     30 H10         2.0290    6.9680   -0.2110 hc        1 MOL      0.015423
     31 H11         0.9560    5.6690    0.2620 hc        1 MOL      0.015423
     32 H12         0.4960    7.2790   -1.7930 hc        1 MOL      0.027369
     33 H13         0.1570    5.6990   -2.2010 hc        1 MOL      0.027369
     34 H14         1.4620    6.5220   -4.0560 hc        1 MOL      0.052486
     35 H15         2.5110    5.4060   -3.1090 hc        1 MOL      0.052486
     36 H16         3.4920    7.5320   -1.9200 hx        1 MOL      0.073707
     37 H17         2.4360    8.4380   -3.0940 hx        1 MOL      0.073707
     38 H18         3.5030    7.5160   -4.7670 hn        1 MOL      0.353695
     39 H19         4.6990    8.2390   -3.8630 hn        1 MOL      0.353695
     40 H20         4.6610    6.6200   -3.8850 hn        1 MOL      0.353695
     41 N4          3.8700    3.4540    1.2770 n         1 MOL     -0.269539
     42 C13         4.7750    3.2680    2.4800 c3        1 MOL     -0.048462
     43 C14         5.8400    2.2040    2.2650 c         1 MOL      0.536655
     44 O6          6.6700    1.9340    3.1250 o         1 MOL     -0.505037
     45 C15         3.9590    3.0490    3.7900 c3        1 MOL     -0.173396
     46 C16         2.7920    2.0340    3.8290 c         1 MOL      0.871784
     47 O7          1.9540    2.0210    4.7580 o         1 MOL     -0.744998
     48 O8          2.6610    1.1250    2.9660 o         1 MOL     -0.744998
     49 H21         3.7540    2.7580    0.5590 hn        1 MOL     -0.089461
     50 H22         5.3160    4.1970    2.6850 h1        1 MOL      0.099472
     51 H23         3.3450    3.9410    3.9220 hc        1 MOL      0.044460
     52 H24         4.5990    2.8240    4.6320 hc        1 MOL      0.044460
     53 N5          5.8870    1.6480    1.0450 n         1 MOL     -0.441388
     54 C17         7.1340    1.0540    0.5570 c3        1 MOL     -0.180378
     55 C18         7.3440   -0.3260    1.0790 c         1 MOL      0.501580
     56 O9          8.5030   -0.7850    1.1860 o         1 MOL     -0.601794
     57 H25         5.1260    1.8040    0.3960 hn        1 MOL      0.439900
     58 H26         7.9990    1.7020    0.7420 h1        1 MOL      0.116985
     59 H27         6.9740    1.0480   -0.5100 h1        1 MOL      0.116985
     60 N6          6.3180   -1.1300    1.3390 n         1 MOL     -0.029117
     61 C19         6.4300   -2.5560    1.8030 c3        1 MOL     -0.167597
     62 C20         6.4910   -3.6510    0.7570 c         1 MOL      0.409241
     63 O10         6.6680   -4.8310    1.0700 o         1 MOL     -0.491978
     64 C21         5.3950   -2.9210    2.8360 c3        1 MOL     -0.195667
     65 C22         3.9710   -2.4570    2.4610 c         1 MOL      0.686213
     66 O11         3.2800   -1.9260    3.3810 o         1 MOL     -0.696001
     67 O12         3.4910   -2.6520    1.3610 o         1 MOL     -0.696001
     68 H28         5.4030   -0.7670    1.1280 hn        1 MOL      0.058672
     69 H29         7.3990   -2.6330    2.2920 h1        1 MOL      0.153395
     70 H30         5.5850   -2.4230    3.7740 hc        1 MOL      0.076726
     71 H31         5.3620   -4.0100    2.9470 hc        1 MOL      0.076726
     72 N7          6.3060   -3.2230   -0.5410 n         1 MOL     -0.201482
     73 C23         6.1510   -4.0670   -1.7080 c3        1 MOL     -0.177260
     74 C24         4.7710   -4.7380   -1.7840 c         1 MOL      0.605923
     75 O13         4.6130   -5.6920   -2.5360 o         1 MOL     -0.587784
     76 H32         6.1640   -2.2260   -0.6300 hn        1 MOL      0.206648
     77 H33         6.9020   -4.8330   -1.8180 h1        1 MOL      0.089845
     78 H34         6.1890   -3.3400   -2.5250 h1        1 MOL      0.089845
     79 N8          3.7860   -4.1870   -1.0840 n         1 MOL     -0.306909
     80 C25         2.3260   -4.5760   -1.0870 c3        1 MOL     -0.164578
     81 C26         1.3240   -3.4080   -1.1580 c         1 MOL      0.823481
     82 O14         1.5990   -2.2680   -0.7250 o         1 MOL     -0.689392
     83 C27         1.9140   -5.5710   -0.0110 c3        1 MOL      0.431115
     84 C28         2.7120   -6.9320    0.0330 c3        1 MOL     -0.348688
     85 O15         2.2000   -5.0950    1.3070 oh        1 MOL     -0.678309
     86 H35         3.9910   -3.3850   -0.5050 hn        1 MOL      0.201145
     87 H36         2.0990   -5.0830   -2.0250 h1        1 MOL      0.057525
     88 H37         0.8940   -5.8430   -0.2840 h1        1 MOL     -0.030930
     89 H38         2.8040   -4.3600    1.1840 ho        1 MOL      0.488554
     90 H39         2.5740   -7.5480   -0.8460 hc        1 MOL      0.088402
     91 H40         3.7700   -6.7370    0.2180 hc        1 MOL      0.088402
     92 H41         2.2970   -7.5560    0.8180 hc        1 MOL      0.088402
     93 N9          0.2170   -3.6240   -1.6930 n         1 MOL     -0.710201
     94 C29        -1.0010   -2.7720   -1.8660 c3        1 MOL     -0.000873
     95 C30        -2.2750   -3.3750   -1.1200 c         1 MOL      0.542091
     96 O16        -2.7960   -4.4400   -1.5140 o         1 MOL     -0.542388
     97 C31        -1.1920   -2.4020   -3.3090 c3        1 MOL      0.246701
     98 C32         0.1240   -1.6620   -3.9040 c3        1 MOL     -0.018007
     99 C33        -2.5120   -1.6150   -3.4410 c3        1 MOL     -0.216214
    100 C34         0.0970   -1.8300   -5.4550 c3        1 MOL     -0.201348
    101 H42         0.0850   -4.5460   -2.0990 hn        1 MOL      0.326736
    102 H43        -0.8540   -1.8710   -1.2720 h1        1 MOL      0.086989
    103 H44        -1.4740   -3.3300   -3.8100 hc        1 MOL     -0.014218
    104 H45         1.0100   -2.1320   -3.4770 hc        1 MOL      0.039161
    105 H46         0.1700   -0.6110   -3.6550 hc        1 MOL      0.039161
    106 H47        -2.6370   -1.2540   -4.4570 hc        1 MOL      0.025216
    107 H48        -3.3720   -2.1920   -3.1100 hc        1 MOL      0.025216
    108 H49        -2.2930   -0.7150   -2.8650 hc        1 MOL      0.025216
    109 H50         0.1350   -2.8730   -5.7720 hc        1 MOL      0.042956
    110 H51        -0.8210   -1.3830   -5.8400 hc        1 MOL      0.042956
    111 H52         0.9810   -1.4030   -5.9350 hc        1 MOL      0.042956
    112 N10        -2.6480   -2.6370   -0.0860 n         1 MOL     -0.304011
    113 C35        -3.9150   -2.8860    0.6580 c3        1 MOL     -0.116354
    114 C36        -5.1700   -2.5140   -0.1920 c         1 MOL      0.258215
    115 O17        -5.0870   -1.8710   -1.2480 o         1 MOL     -0.357648
    116 C37        -3.9940   -2.1070    1.9460 c3        1 MOL      0.128009
    117 C38        -2.9520   -2.4560    3.0530 c3        1 MOL     -0.303930
    118 O18        -3.9970   -0.6860    1.7820 oh        1 MOL     -0.496936
    119 H53        -2.0950   -1.8390    0.1950 hn        1 MOL      0.368018
    120 H54        -3.9910   -3.9350    0.9410 h1        1 MOL      0.106171
    121 H55        -4.9720   -2.3590    2.3650 h1        1 MOL      0.073387
    122 H56        -3.0740   -0.4710    1.6260 ho        1 MOL      0.351184
    123 H57        -2.3040   -1.6150    3.2940 hc        1 MOL      0.088611
    124 H58        -3.4520   -2.8180    3.9590 hc        1 MOL      0.088611
    125 H59        -2.2340   -3.1450    2.6150 hc        1 MOL      0.088611
    126 N11        -6.3400   -2.8520    0.2830 n         1 MOL     -0.082483
    127 C39        -7.6190   -2.3720   -0.2990 c3        1 MOL     -0.258672
    128 C40        -7.7440   -0.8770   -0.0210 c         1 MOL      0.582464
    129 O19        -8.4150   -0.1850   -0.8180 o         1 MOL     -0.523032
    130 C41        -8.7910   -3.1480    0.2120 c3        1 MOL      0.307502
    131 C42        -8.7370   -4.6250   -0.1050 c3        1 MOL     -0.230049
    132 O20        -8.8200   -3.0660    1.6730 oh        1 MOL     -0.677648
    133 H60        -6.4090   -3.4790    1.0730 hn        1 MOL      0.213369
    134 H61        -7.5770   -2.4500   -1.3800 h1        1 MOL      0.151320
    135 H62        -9.6740   -2.7560   -0.2820 h1        1 MOL      0.043079
    136 H63        -9.4070   -3.7330    2.0300 ho        1 MOL      0.427629
    137 H64        -9.5480   -5.1300    0.4280 hc        1 MOL      0.065588
    138 H65        -8.9060   -4.8820   -1.1400 hc        1 MOL      0.065588
    139 H66        -7.7490   -5.0490    0.1260 hc        1 MOL      0.065588
    140 N12        -7.0140   -0.2660    0.9520 n         1 MOL     -0.343799
    141 C43        -7.0900    1.2010    1.0370 c3        1 MOL     -0.129877
    142 C44        -6.2680    1.8560   -0.0600 c         1 MOL      0.412230
    143 O21        -6.7640    2.7300   -0.6930 o         1 MOL     -0.512368
    144 C45        -6.5730    1.6190    2.4410 c3        1 MOL      0.097264
    145 C46        -6.4880    3.0660    2.8250 c3        1 MOL     -0.350009
    146 C47        -6.0620    3.2090    4.2710 c3        1 MOL      0.140600
    147 C48        -6.4740    4.5410    4.7830 c3        1 MOL      0.092057
    148 N13        -5.8800    4.9260    6.0800 n4        1 MOL     -0.323017
    149 H67        -6.5770   -0.8050    1.6960 hn        1 MOL      0.230120
    150 H68        -8.1120    1.4510    0.7420 h1        1 MOL      0.119341
    151 H69        -5.5850    1.2020    2.6190 hc        1 MOL      0.015012
    152 H70        -7.1950    1.1310    3.1900 hc        1 MOL      0.015012
    153 H71        -7.5170    3.4200    2.8130 hc        1 MOL      0.107701
    154 H72        -5.9000    3.6520    2.1150 hc        1 MOL      0.107701
    155 H73        -4.9790    3.0780    4.3370 hc        1 MOL     -0.001079
    156 H74        -6.4550    2.4410    4.9450 hc        1 MOL     -0.001079
    157 H75        -7.5520    4.6660    4.7540 hx        1 MOL      0.062417
    158 H76        -6.1040    5.3000    4.0890 hx        1 MOL      0.062417
    159 H77        -4.9600    4.5210    6.1820 hn        1 MOL      0.300830
    160 H78        -5.6140    5.8980    6.0930 hn        1 MOL      0.300830
    161 H79        -6.3830    4.6920    6.9300 hn        1 MOL      0.300830
    162 N14        -5.0840    1.3950   -0.2320 n         1 MOL      0.015088
    163 C49        -4.1530    1.9300   -1.1770 c3        1 MOL     -0.250483
    164 C50        -4.6340    1.7820   -2.6620 c         1 MOL      0.371419
    165 O22        -4.4660    2.6900   -3.5270 o         1 MOL     -0.535195
    166 C51        -2.8410    1.2500   -1.0510 c3        1 MOL      0.103234
    167 C52        -2.1150    1.6960    0.2000 c3        1 MOL     -0.400876
    168 C53        -0.9800    0.7240    0.5530 c         1 MOL      0.841353
    169 O23         0.1940    1.1680    0.6680 o         1 MOL     -0.829094
    170 O24        -1.2020   -0.4930    0.7250 o         1 MOL     -0.829094
    171 H80        -4.8220    0.6570    0.4070 hn        1 MOL      0.139581
    172 H81        -3.9020    2.9630   -0.9440 h1        1 MOL      0.105692
    173 H82        -2.1940    1.5630   -1.8620 hc        1 MOL      0.076315
    174 H83        -3.0330    0.1830   -1.1420 hc        1 MOL      0.076315
    175 H84        -2.7820    1.8070    1.0570 hc        1 MOL      0.103025
    176 H85        -1.7470    2.6770   -0.1030 hc        1 MOL      0.103025
    177 N15        -5.3590    0.7010   -2.9240 n         1 MOL      0.017650
    178 C54        -6.2080    0.4380   -4.0840 c3        1 MOL     -0.271314
    179 H86        -6.5960   -0.5780   -4.0260 h1        1 MOL      0.101651
    180 H87        -7.0390    1.1440   -4.0940 h1        1 MOL      0.101651
    181 H88        -5.6220    0.5520   -4.9970 h1        1 MOL      0.101651
    182 H89        -5.4230   -0.0280   -2.2290 hn        1 MOL      0.112372
    183 Ca1         1.6660   -0.6050    1.5130 Ca        1 MOL      1.799553
    184 O25         0.1140    0.1430    3.5610 oh        1 MOL     -0.790176
    185 H90         0.6220    0.8240    4.0100 ho        1 MOL      0.380439
    186 H91        -0.7970    0.3830    3.7160 ho        1 MOL      0.380439
    187 O26         0.5070   -2.7830    2.5050 oh        1 MOL     -0.790176
    188 H92         0.4790   -2.7400    3.4690 ho        1 MOL      0.380439
    189 H93         0.2720   -3.6900    2.3050 ho        1 MOL      0.380439
@<TRIPOS>BOND
     1    1    2 1   
     2    1    4 1   
     3    1    5 1   
     4    1    6 1   
     5    2    3 2   
     6    2    7 1   
     7    7    8 1   
     8    7   15 1   
     9    8    9 1   
    10    8   11 1   
    11    8   16 1   
    12    9   10 2   
    13    9   19 1   
    14   11   12 1   
    15   11   17 1   
    16   11   18 1   
    17   12   13 1   
    18   12   14 1   
    19   19   20 1   
    20   19   28 1   
    21   20   21 1   
    22   20   23 1   
    23   20   29 1   
    24   21   22 2   
    25   21   41 1   
    26   23   24 1   
    27   23   30 1   
    28   23   31 1   
    29   24   25 1   
    30   24   32 1   
    31   24   33 1   
    32   25   26 1   
    33   25   34 1   
    34   25   35 1   
    35   26   27 1   
    36   26   36 1   
    37   26   37 1   
    38   27   38 1   
    39   27   39 1   
    40   27   40 1   
    41   41   42 1   
    42   41   49 1   
    43   42   43 1   
    44   42   45 1   
    45   42   50 1   
    46   43   44 2   
    47   43   53 1   
    48   45   46 1   
    49   45   51 1   
    50   45   52 1   
    51   46   47 1   
    52   46   48 1   
    53   53   54 1   
    54   53   57 1   
    55   54   55 1   
    56   54   58 1   
    57   54   59 1   
    58   55   56 2   
    59   55   60 1   
    60   60   61 1   
    61   60   68 1   
    62   61   62 1   
    63   61   64 1   
    64   61   69 1   
    65   62   63 2   
    66   62   72 1   
    67   64   65 1   
    68   64   70 1   
    69   64   71 1   
    70   65   66 1   
    71   65   67 1   
    72   72   73 1   
    73   72   76 1   
    74   73   74 1   
    75   73   77 1   
    76   73   78 1   
    77   74   75 2   
    78   74   79 1   
    79   79   80 1   
    80   79   86 1   
    81   80   81 1   
    82   80   83 1   
    83   80   87 1   
    84   81   82 2   
    85   81   93 1   
    86   83   84 1   
    87   83   85 1   
    88   83   88 1   
    89   84   90 1   
    90   84   91 1   
    91   84   92 1   
    92   85   89 1   
    93   93   94 1   
    94   93  101 1   
    95   94   95 1   
    96   94   97 1   
    97   94  102 1   
    98   95   96 2   
    99   95  112 1   
   100   97   98 1   
   101   97   99 1   
   102   97  103 1   
   103   98  100 1   
   104   98  104 1   
   105   98  105 1   
   106   99  106 1   
   107   99  107 1   
   108   99  108 1   
   109  100  109 1   
   110  100  110 1   
   111  100  111 1   
   112  112  113 1   
   113  112  119 1   
   114  113  114 1   
   115  113  116 1   
   116  113  120 1   
   117  114  115 2   
   118  114  126 1   
   119  116  117 1   
   120  116  118 1   
   121  116  121 1   
   122  117  123 1   
   123  117  124 1   
   124  117  125 1   
   125  118  122 1   
   126  126  127 1   
   127  126  133 1   
   128  127  128 1   
   129  127  130 1   
   130  127  134 1   
   131  128  129 2   
   132  128  140 1   
   133  130  131 1   
   134  130  132 1   
   135  130  135 1   
   136  131  137 1   
   137  131  138 1   
   138  131  139 1   
   139  132  136 1   
   140  140  141 1   
   141  140  149 1   
   142  141  142 1   
   143  141  144 1   
   144  141  150 1   
   145  142  143 2   
   146  142  162 1   
   147  144  145 1   
   148  144  151 1   
   149  144  152 1   
   150  145  146 1   
   151  145  153 1   
   152  145  154 1   
   153  146  147 1   
   154  146  155 1   
   155  146  156 1   
   156  147  148 1   
   157  147  157 1   
   158  147  158 1   
   159  148  159 1   
   160  148  160 1   
   161  148  161 1   
   162  162  163 1   
   163  162  171 1   
   164  163  164 1   
   165  163  166 1   
   166  163  172 1   
   167  164  165 2   
   168  164  177 1   
   169  166  167 1   
   170  166  173 1   
   171  166  174 1   
   172  167  168 1   
   173  167  175 1   
   174  167  176 1   
   175  168  169 1   
   176  168  170 1   
   177  177  178 1   
   178  177  182 1   
   179  178  179 1   
   180  178  180 1   
   181  178  181 1   
   182  184  185 1   
   183  184  186 1   
   184  187  188 1   
   185  187  189 1   
@<TRIPOS>SUBSTRUCTURE
     1 MOL         1 TEMP              0 ****  ****    0 ROOT
