@<TRIPOS>MOLECULE
MOL
  189   185     1     0     0
SMALL
resp


@<TRIPOS>ATOM
      1 C1          0.5570   -4.8920    5.3260 c3        1 MOL     -0.381037
      2 C2          1.4410   -4.1900    4.2980 c         1 MOL      0.747406
      3 O1          1.8450   -3.0860    4.5400 o         1 MOL     -0.600156
      4 H1          0.7490   -5.9650    5.2960 hc        1 MOL      0.088467
      5 H2          0.7840   -4.5110    6.3210 hc        1 MOL      0.088467
      6 H3         -0.4910   -4.7050    5.0940 hc        1 MOL      0.088467
      7 N1          1.8280   -4.9240    3.2740 n         1 MOL     -0.559917
      8 C3          2.5600   -4.3200    2.1800 c3        1 MOL      0.131913
      9 C4          2.4550   -5.1760    0.8680 c         1 MOL      0.410008
     10 O2          2.7420   -6.3850    0.9200 o         1 MOL     -0.591059
     11 C5          4.0340   -4.2500    2.6000 c3        1 MOL     -0.289081
     12 C6          4.6580   -3.0360    1.8950 c         1 MOL      0.739338
     13 O3          5.7100   -2.5840    2.3900 o         1 MOL     -0.701001
     14 O4          4.1630   -2.4570    0.8920 o         1 MOL     -0.701001
     15 H4          1.4300   -5.8360    3.1150 hn        1 MOL      0.306567
     16 H5          2.2700   -3.2890    1.9840 h1        1 MOL      0.092041
     17 H6          4.6000   -5.1530    2.3810 hc        1 MOL      0.090699
     18 H7          4.2160   -4.0590    3.6570 hc        1 MOL      0.090699
     19 N2          2.1250   -4.6040   -0.2560 n         1 MOL      0.181438
     20 C7          1.9640   -5.3280   -1.5690 c3        1 MOL     -0.302027
     21 C8          3.0490   -4.8380   -2.5960 c         1 MOL      0.624724
     22 O5          3.3570   -5.5790   -3.4740 o         1 MOL     -0.592880
     23 C9          0.5280   -5.0890   -2.1260 c3        1 MOL      0.240753
     24 C10         0.2520   -3.6990   -2.6210 c3        1 MOL      0.036906
     25 C11        -0.5480   -5.4050   -1.0450 c3        1 MOL     -0.266338
     26 C12        -1.1590   -3.3060   -3.1070 c3        1 MOL     -0.154557
     27 H8          1.9050   -3.6290   -0.2030 hn        1 MOL     -0.057224
     28 H9          2.0090   -6.4030   -1.4050 h1        1 MOL      0.119997
     29 H10         0.3130   -5.7220   -2.9910 hc        1 MOL     -0.038290
     30 H11         0.9330   -3.6040   -3.4670 hc        1 MOL      0.043353
     31 H12         0.5730   -2.9720   -1.8810 hc        1 MOL      0.043353
     32 H13        -1.5050   -5.5540   -1.5430 hc        1 MOL      0.047857
     33 H14        -0.2690   -6.2960   -0.4920 hc        1 MOL      0.047857
     34 H15        -0.5150   -4.5640   -0.3450 hc        1 MOL      0.047857
     35 H16        -1.5630   -4.0820   -3.7540 hc        1 MOL      0.031994
     36 H17        -1.8440   -3.1180   -2.2860 hc        1 MOL      0.031994
     37 H18        -1.0000   -2.4020   -3.6960 hc        1 MOL      0.031994
     38 N3          3.5760   -3.6260   -2.5120 n         1 MOL     -0.250032
     39 C13         4.1910   -2.8580   -3.5980 c3        1 MOL      0.080748
     40 C14         5.6000   -2.2990   -3.1960 c         1 MOL      0.363636
     41 O6          6.4660   -2.1160   -4.1060 o         1 MOL     -0.543992
     42 C15         3.3540   -1.6820   -4.1160 c3        1 MOL     -0.194433
     43 C16         2.5980   -0.8350   -3.0760 c         1 MOL      0.707496
     44 O7          2.9090   -0.9400   -1.8470 o         1 MOL     -0.678592
     45 O8          1.6950   -0.0990   -3.5070 o         1 MOL     -0.678592
     46 H19         3.2890   -3.0500   -1.7340 hn        1 MOL     -0.157822
     47 H20         4.3430   -3.5030   -4.4600 h1        1 MOL      0.082603
     48 H21         2.6450   -2.1010   -4.8380 hc        1 MOL      0.053523
     49 H22         4.0650   -1.0480   -4.6460 hc        1 MOL      0.053523
     50 N4          5.8550   -2.0070   -1.9230 n         1 MOL     -0.136416
     51 C17         7.2270   -1.6630   -1.4000 c3        1 MOL     -0.234561
     52 C18         7.6580   -0.2560   -1.8330 c         1 MOL      0.549511
     53 O9          8.8230   -0.0400   -2.1350 o         1 MOL     -0.611052
     54 H23         5.0590   -2.0360   -1.2990 hn        1 MOL      0.242169
     55 H24         7.9160   -2.4050   -1.7990 h1        1 MOL      0.119548
     56 H25         7.1990   -1.6540   -0.3120 h1        1 MOL      0.119548
     57 N5          6.7560    0.6630   -1.8310 n         1 MOL     -0.264013
     58 C19         6.8840    2.1340   -2.1410 c3        1 MOL      0.183952
     59 C20         7.1910    2.9940   -0.9250 c         1 MOL      0.333520
     60 O10         7.6960    4.1020   -1.0010 o         1 MOL     -0.526581
     61 C21         5.6000    2.4840   -2.8380 c3        1 MOL     -0.542837
     62 C22         4.2930    2.2850   -2.0390 c         1 MOL      0.827596
     63 O11         4.2710    1.5490   -0.9900 o         1 MOL     -0.632504
     64 O12         3.2410    2.8200   -2.4460 o         1 MOL     -0.632504
     65 H26         5.8970    0.2770   -1.4620 hn        1 MOL      0.179832
     66 H27         7.7640    2.2890   -2.7590 h1        1 MOL      0.081602
     67 H28         5.5850    1.8570   -3.7310 hc        1 MOL      0.155233
     68 H29         5.7020    3.5540   -3.0250 hc        1 MOL      0.155233
     69 N6          6.9250    2.5420    0.2880 n         1 MOL     -0.088656
     70 C23         7.0220    3.3270    1.4900 c3        1 MOL     -0.271608
     71 C24         5.6850    4.0070    1.9230 c         1 MOL      0.553043
     72 O13         5.5490    4.6480    2.9200 o         1 MOL     -0.587179
     73 H30         6.5220    1.6320    0.4290 hn        1 MOL      0.127436
     74 H31         7.7600    4.1110    1.3410 h1        1 MOL      0.125440
     75 H32         7.3640    2.6000    2.2390 h1        1 MOL      0.125440
     76 N7          4.6090    3.8400    1.1220 n         1 MOL     -0.009489
     77 C25         3.2870    4.4350    1.3220 c3        1 MOL     -0.102734
     78 C26         2.3160    3.3880    1.7930 c         1 MOL      0.533718
     79 O14         2.5680    2.2040    1.7150 o         1 MOL     -0.580823
     80 C27         2.7300    5.1730    0.0830 c3        1 MOL      0.065102
     81 C28         3.7300    5.9180   -0.7230 c3        1 MOL     -0.209074
     82 C29         3.1480    6.5170   -2.0160 c         1 MOL      0.604862
     83 N8          2.7420    5.6580   -2.9770 n         1 MOL     -0.701741
     84 O15         3.0510    7.7320   -2.1990 o         1 MOL     -0.597457
     85 H33         4.7180    3.2170    0.3370 hn        1 MOL     -0.115250
     86 H34         3.3680    5.2230    2.0650 h1        1 MOL      0.064228
     87 H35         1.8120    5.7140    0.3310 hc        1 MOL      0.016129
     88 H36         2.3860    4.3670   -0.5750 hc        1 MOL      0.016129
     89 H37         4.6040    5.3190   -0.9850 hc        1 MOL      0.070984
     90 H38         4.0460    6.7820   -0.1470 hc        1 MOL      0.070984
     91 H39         2.7860    4.6540   -2.9270 hn        1 MOL      0.319565
     92 H40         2.5600    6.1480   -3.8450 hn        1 MOL      0.319565
     93 N9          1.0900    3.7820    2.1740 n         1 MOL     -0.382332
     94 C30        -0.0490    2.8910    2.5960 c3        1 MOL      0.001641
     95 C31        -1.2450    3.1240    1.6360 c         1 MOL      0.342071
     96 O16        -1.8140    4.2390    1.6670 o         1 MOL     -0.556488
     97 C32        -0.4690    3.2150    3.9920 c3        1 MOL      0.541129
     98 C33        -1.5600    2.2900    4.4650 c3        1 MOL     -0.441914
     99 C34         0.6830    3.0470    4.9570 c3        1 MOL     -0.441914
    100 H41         0.9270    4.7500    2.4160 hn        1 MOL      0.246561
    101 H42         0.1940    1.8310    2.5350 h1        1 MOL      0.063553
    102 H43        -0.7650    4.2630    4.0580 hc        1 MOL     -0.084709
    103 H44        -2.5010    2.3990    3.9250 hc        1 MOL      0.085223
    104 H45        -1.2750    1.2530    4.2460 hc        1 MOL      0.085223
    105 H46        -1.7890    2.5330    5.5050 hc        1 MOL      0.085223
    106 H47         0.2290    2.9270    5.9450 hc        1 MOL      0.085223
    107 H48         1.2690    2.2190    4.5640 hc        1 MOL      0.085223
    108 H49         1.2950    3.9420    4.8370 hc        1 MOL      0.085223
    109 N10        -1.5380    2.1800    0.7880 n         1 MOL     -0.138950
    110 C35        -2.6480    2.1810   -0.1720 c3        1 MOL     -0.191749
    111 C36        -4.0430    2.1120    0.4610 c         1 MOL      0.514085
    112 O17        -4.2320    1.5580    1.5260 o         1 MOL     -0.387396
    113 C37        -2.3690    1.0680   -1.1700 c3        1 MOL     -0.411648
    114 C38        -3.4360    1.0310   -2.2700 c         1 MOL      0.655133
    115 N11        -3.6920    2.0970   -2.9540 n         1 MOL     -0.697642
    116 O18        -4.1240    0.1240   -2.5730 o         1 MOL     -0.466070
    117 H50        -1.0290    1.3150    0.8390 hn        1 MOL      0.304665
    118 H51        -2.4720    3.1390   -0.6570 h1        1 MOL      0.125030
    119 H52        -2.2930    0.0740   -0.7420 hc        1 MOL      0.175457
    120 H53        -1.3910    1.1830   -1.6260 hc        1 MOL      0.175457
    121 H54        -3.2060    2.9350   -2.7060 hn        1 MOL      0.331820
    122 H55        -4.3970    2.0840   -3.6810 hn        1 MOL      0.331820
    123 N12        -5.0760    2.3970   -0.3040 n         1 MOL     -0.486521
    124 C39        -6.4650    1.9870   -0.0700 c3        1 MOL      0.383676
    125 C40        -6.6350    0.5470    0.3220 c         1 MOL      0.361701
    126 O19        -7.2900    0.2780    1.3660 o         1 MOL     -0.541671
    127 C41        -7.1940    2.3800   -1.4070 c3        1 MOL     -0.385809
    128 C42        -8.6780    2.1710   -1.4770 ca        1 MOL     -0.017025
    129 C43        -9.4780    2.7320   -0.4800 ca        1 MOL      0.006283
    130 C44        -9.2970    1.6260   -2.6440 ca        1 MOL      0.006283
    131 C45       -10.8690    2.7370   -0.6480 ca        1 MOL     -0.419450
    132 C46       -10.6990    1.7170   -2.8110 ca        1 MOL     -0.419450
    133 C47       -11.5240    2.2350   -1.7600 ca        1 MOL      0.505922
    134 O20       -12.8870    2.2500   -1.9060 oh        1 MOL     -0.589041
    135 H56        -4.9130    2.7800   -1.2250 hn        1 MOL      0.213416
    136 H57        -6.8870    2.6240    0.7030 h1        1 MOL      0.003361
    137 H58        -6.7350    1.7440   -2.1600 hc        1 MOL      0.118270
    138 H59        -6.9130    3.3310   -1.8590 hc        1 MOL      0.118270
    139 H60        -9.0170    3.1390    0.4130 ha        1 MOL      0.093829
    140 H61        -8.7090    1.2280   -3.4540 ha        1 MOL      0.093829
    141 H62       -11.4620    3.1610    0.1500 ha        1 MOL      0.161519
    142 H63       -11.1670    1.3430   -3.7020 ha        1 MOL      0.161519
    143 H64       -13.1270    1.8300   -2.7310 ho        1 MOL      0.402785
    144 N13        -6.0240   -0.3960   -0.4370 n         1 MOL      0.018197
    145 C48        -6.1060   -1.8930   -0.1710 c3        1 MOL     -0.150098
    146 C49        -5.2090   -2.3500    1.0000 c         1 MOL      0.364965
    147 O21        -5.3510   -3.3940    1.6340 o         1 MOL     -0.515837
    148 C50        -5.7570   -2.6760   -1.4570 c3        1 MOL     -0.073462
    149 C51        -6.5940   -2.3170   -2.7340 c3        1 MOL     -0.126080
    150 C52        -8.1020   -2.6600   -2.6450 c         1 MOL      0.544618
    151 O22        -8.5120   -3.7250   -2.1710 o         1 MOL     -0.664375
    152 O23        -8.9870   -1.8070   -3.0440 o         1 MOL     -0.664375
    153 H65        -5.6790   -0.1100   -1.3470 hn        1 MOL      0.103176
    154 H66        -7.0750   -2.1580    0.2560 h1        1 MOL      0.174835
    155 H67        -5.8280   -3.7620   -1.3360 hc        1 MOL      0.062669
    156 H68        -4.7840   -2.4560   -1.8810 hc        1 MOL      0.062669
    157 H69        -6.1250   -2.6770   -3.6460 hc        1 MOL      0.011890
    158 H70        -6.4940   -1.2340   -2.8500 hc        1 MOL      0.011890
    159 N14        -4.2240   -1.5320    1.4130 n         1 MOL     -0.082074
    160 C53        -3.4200   -1.8210    2.5790 c3        1 MOL     -0.012465
    161 C54        -3.9600   -1.2480    3.8860 c         1 MOL      0.432179
    162 O24        -3.7910   -1.9170    4.9410 o         1 MOL     -0.571405
    163 C55        -2.0600   -1.1960    2.3520 c3        1 MOL     -0.037838
    164 C56        -1.2390   -2.0490    1.3460 c3        1 MOL      0.033284
    165 C57         0.0710   -1.4330    0.9930 c         1 MOL      0.738139
    166 O25         0.9960   -2.1130    0.4630 o         1 MOL     -0.755453
    167 O26         0.3360   -0.2530    1.4240 o         1 MOL     -0.755453
    168 H71        -4.0850   -0.6810    0.8960 hn        1 MOL     -0.053305
    169 H72        -3.2900   -2.9020    2.7260 h1        1 MOL      0.086032
    170 H73        -1.5630   -1.0830    3.3170 hc        1 MOL      0.026187
    171 H74        -2.1640   -0.2030    1.9050 hc        1 MOL      0.026187
    172 H75        -1.7600   -2.1670    0.3960 hc        1 MOL     -0.001935
    173 H76        -1.0680   -3.0160    1.8310 hc        1 MOL     -0.001935
    174 N15        -4.4590    0.0190    3.9640 n         1 MOL     -0.022807
    175 C58        -5.0730    0.6000    5.1800 c3        1 MOL     -0.247308
    176 H77        -5.3040    1.6510    5.0030 h1        1 MOL      0.089166
    177 H78        -5.9900    0.0620    5.4180 h1        1 MOL      0.089166
    178 H79        -4.3760    0.5180    6.0150 h1        1 MOL      0.089166
    179 H80        -4.5490    0.5070    3.0950 hn        1 MOL      0.082432
    180 Ca1         2.8580   -0.1820    0.5660 Ca        1 MOL      1.755879
    181 O27         2.9130   -0.7370    3.2780 oh        1 MOL     -0.817744
    182 H81         2.3050   -1.4270    3.5530 ho        1 MOL      0.395422
    183 H82         2.9360   -0.1280    4.0100 ho        1 MOL      0.395422
    184 O28         1.1490    1.3420   -1.0530 oh        1 MOL     -0.817744
    185 H83         0.9510    0.8240   -1.8310 ho        1 MOL      0.395422
    186 H84         1.7900    1.9910   -1.3600 ho        1 MOL      0.395422
    187 O29         5.4260   -0.0640    1.7290 oh        1 MOL     -0.817744
    188 H85         5.5920   -0.9720    2.0040 ho        1 MOL      0.395422
    189 H86         5.4430    0.4370    2.5360 ho        1 MOL      0.395422
@<TRIPOS>BOND
     1    1    2 1   
     2    1    4 1   
     3    1    5 1   
     4    1    6 1   
     5    2    3 2   
     6    2    7 1   
     7    7    8 1   
     8    7   15 1   
     9    8    9 1   
    10    8   11 1   
    11    8   16 1   
    12    9   10 2   
    13    9   19 1   
    14   11   12 1   
    15   11   17 1   
    16   11   18 1   
    17   12   13 1   
    18   12   14 1   
    19   19   20 1   
    20   19   27 1   
    21   20   21 1   
    22   20   23 1   
    23   20   28 1   
    24   21   22 2   
    25   21   38 1   
    26   23   24 1   
    27   23   25 1   
    28   23   29 1   
    29   24   26 1   
    30   24   30 1   
    31   24   31 1   
    32   25   32 1   
    33   25   33 1   
    34   25   34 1   
    35   26   35 1   
    36   26   36 1   
    37   26   37 1   
    38   38   39 1   
    39   38   46 1   
    40   39   40 1   
    41   39   42 1   
    42   39   47 1   
    43   40   41 2   
    44   40   50 1   
    45   42   43 1   
    46   42   48 1   
    47   42   49 1   
    48   43   44 1   
    49   43   45 1   
    50   50   51 1   
    51   50   54 1   
    52   51   52 1   
    53   51   55 1   
    54   51   56 1   
    55   52   53 2   
    56   52   57 1   
    57   57   58 1   
    58   57   65 1   
    59   58   59 1   
    60   58   61 1   
    61   58   66 1   
    62   59   60 2   
    63   59   69 1   
    64   61   62 1   
    65   61   67 1   
    66   61   68 1   
    67   62   63 1   
    68   62   64 1   
    69   69   70 1   
    70   69   73 1   
    71   70   71 1   
    72   70   74 1   
    73   70   75 1   
    74   71   72 2   
    75   71   76 1   
    76   76   77 1   
    77   76   85 1   
    78   77   78 1   
    79   77   80 1   
    80   77   86 1   
    81   78   79 2   
    82   78   93 1   
    83   80   81 1   
    84   80   87 1   
    85   80   88 1   
    86   81   82 1   
    87   81   89 1   
    88   81   90 1   
    89   82   83 1   
    90   82   84 2   
    91   83   91 1   
    92   83   92 1   
    93   93   94 1   
    94   93  100 1   
    95   94   95 1   
    96   94   97 1   
    97   94  101 1   
    98   95   96 2   
    99   95  109 1   
   100   97   98 1   
   101   97   99 1   
   102   97  102 1   
   103   98  103 1   
   104   98  104 1   
   105   98  105 1   
   106   99  106 1   
   107   99  107 1   
   108   99  108 1   
   109  109  110 1   
   110  109  117 1   
   111  110  111 1   
   112  110  113 1   
   113  110  118 1   
   114  111  112 2   
   115  111  123 1   
   116  113  114 1   
   117  113  119 1   
   118  113  120 1   
   119  114  115 1   
   120  114  116 2   
   121  115  121 1   
   122  115  122 1   
   123  123  124 1   
   124  123  135 1   
   125  124  125 1   
   126  124  127 1   
   127  124  136 1   
   128  125  126 2   
   129  125  144 1   
   130  127  128 1   
   131  127  137 1   
   132  127  138 1   
   133  128  129 ar  
   134  128  130 ar  
   135  129  131 ar  
   136  129  139 1   
   137  130  132 ar  
   138  130  140 1   
   139  131  133 ar  
   140  131  141 1   
   141  132  133 ar  
   142  132  142 1   
   143  133  134 1   
   144  134  143 1   
   145  144  145 1   
   146  144  153 1   
   147  145  146 1   
   148  145  148 1   
   149  145  154 1   
   150  146  147 2   
   151  146  159 1   
   152  148  149 1   
   153  148  155 1   
   154  148  156 1   
   155  149  150 1   
   156  149  157 1   
   157  149  158 1   
   158  150  151 1   
   159  150  152 1   
   160  159  160 1   
   161  159  168 1   
   162  160  161 1   
   163  160  163 1   
   164  160  169 1   
   165  161  162 2   
   166  161  174 1   
   167  163  164 1   
   168  163  170 1   
   169  163  171 1   
   170  164  165 1   
   171  164  172 1   
   172  164  173 1   
   173  165  166 1   
   174  165  167 1   
   175  174  175 1   
   176  174  179 1   
   177  175  176 1   
   178  175  177 1   
   179  175  178 1   
   180  181  182 1   
   181  181  183 1   
   182  184  185 1   
   183  184  186 1   
   184  187  188 1   
   185  187  189 1   
@<TRIPOS>SUBSTRUCTURE
     1 MOL         1 TEMP              0 ****  ****    0 ROOT
