@<TRIPOS>MOLECULE
MOL
  189   185     1     0     0
SMALL
resp


@<TRIPOS>ATOM
      1 C1         -0.4160    2.7880   -5.3770 c3        1 MOL     -0.283401
      2 C2          0.1350    2.5820   -4.0020 c         1 MOL      0.704817
      3 O1         -0.5870    2.8290   -3.0460 o         1 MOL     -0.599447
      4 H1         -1.4740    2.5240   -5.3870 hc        1 MOL      0.065228
      5 H2         -0.3000    3.8330   -5.6630 hc        1 MOL      0.065228
      6 H3          0.1210    2.1550   -6.0830 hc        1 MOL      0.065228
      7 N1          1.4200    2.1300   -3.8630 n         1 MOL     -0.584757
      8 C3          1.9890    1.8320   -2.5540 c3        1 MOL      0.083587
      9 C4          2.7990    3.0470   -1.9480 c         1 MOL      0.408922
     10 O2          3.8770    3.4670   -2.3650 o         1 MOL     -0.535202
     11 C5          2.9580    0.5780   -2.6820 c3        1 MOL     -0.260225
     12 C6          3.7610    0.1790   -1.4000 c         1 MOL      0.713068
     13 O3          4.6580   -0.6940   -1.6110 o         1 MOL     -0.667204
     14 O4          3.4530    0.6810   -0.2750 o         1 MOL     -0.667204
     15 H4          2.0060    1.9760   -4.6740 hn        1 MOL      0.331778
     16 H5          1.1360    1.5760   -1.9180 h1        1 MOL      0.137028
     17 H6          3.7070    0.6640   -3.4560 hc        1 MOL      0.077352
     18 H7          2.1980   -0.1570   -2.9250 hc        1 MOL      0.077352
     19 N2          2.2600    3.5620   -0.8770 n         1 MOL     -0.255480
     20 C7          2.6120    4.8760   -0.3130 c3        1 MOL      0.075647
     21 C8          3.7060    4.9030    0.7600 c         1 MOL      0.439302
     22 O5          4.4990    5.8660    0.8550 o         1 MOL     -0.551670
     23 C9          1.3480    5.4220    0.2790 c3        1 MOL     -0.252159
     24 C10         0.2780    5.7930   -0.7930 c3        1 MOL      0.294520
     25 C11         0.7600    6.7790   -1.8780 c3        1 MOL     -0.195321
     26 C12        -0.2620    7.7010   -2.4930 c3        1 MOL     -0.028147
     27 N3         -1.1030    7.1350   -3.5910 n4        1 MOL     -0.331914
     28 H8          1.5180    3.0420   -0.4200 hn        1 MOL      0.190963
     29 H9          2.9980    5.5690   -1.0590 h1        1 MOL      0.043639
     30 H10         1.6430    6.3380    0.7940 hc        1 MOL      0.060191
     31 H11         0.9720    4.7540    1.0520 hc        1 MOL      0.060191
     32 H12        -0.5860    6.1670   -0.2510 hc        1 MOL     -0.037791
     33 H13        -0.1240    4.9090   -1.2790 hc        1 MOL     -0.037791
     34 H14         1.2140    6.2310   -2.7080 hc        1 MOL      0.083400
     35 H15         1.5230    7.3690   -1.3620 hc        1 MOL      0.083400
     36 H16         0.2700    8.5010   -3.0050 hx        1 MOL      0.099006
     37 H17        -0.8340    8.1370   -1.6680 hx        1 MOL      0.099006
     38 H18        -0.5240    6.6350   -4.2480 hn        1 MOL      0.325529
     39 H19        -1.7050    6.4020   -3.2490 hn        1 MOL      0.325529
     40 H20        -1.5970    7.8460   -4.1230 hn        1 MOL      0.325529
     41 N4          3.7390    3.8630    1.6410 n         1 MOL     -0.317204
     42 C13         4.8120    3.6970    2.5930 c3        1 MOL      0.048120
     43 C14         5.9620    2.8290    1.9570 c         1 MOL      0.367897
     44 O6          7.1290    3.0180    2.4540 o         1 MOL     -0.545757
     45 C15         4.2060    3.1430    3.8800 c3        1 MOL     -0.312030
     46 C16         3.1870    2.0040    3.8180 c         1 MOL      0.760197
     47 O7          2.7400    1.5920    4.9190 o         1 MOL     -0.708680
     48 O8          2.8990    1.4460    2.7610 o         1 MOL     -0.708680
     49 H21         3.0420    3.1260    1.5530 hn        1 MOL      0.243267
     50 H22         5.1730    4.6890    2.8680 h1        1 MOL      0.107769
     51 H23         3.8270    4.0260    4.3870 hc        1 MOL      0.088497
     52 H24         4.9870    2.8420    4.5760 hc        1 MOL      0.088497
     53 N5          5.7320    1.9570    0.9740 n         1 MOL      0.190289
     54 C17         6.7240    1.5060    0.0560 c3        1 MOL     -0.277490
     55 C18         7.3030    0.1600    0.5140 c         1 MOL      0.650993
     56 O9          8.3800    0.1380    1.0780 o         1 MOL     -0.562452
     57 H25         4.8060    1.5620    0.9150 hn        1 MOL     -0.030435
     58 H26         7.5730    2.1890    0.0060 h1        1 MOL      0.090513
     59 H27         6.3570    1.3840   -0.9560 h1        1 MOL      0.090513
     60 N6          6.5380   -0.9290    0.4450 n         1 MOL     -0.695230
     61 C19         6.8990   -2.2630    1.0600 c3        1 MOL      0.296591
     62 C20         6.6420   -3.4670    0.1420 c         1 MOL      0.212652
     63 O10         6.6640   -4.6520    0.5920 o         1 MOL     -0.492382
     64 C21         6.1160   -2.3320    2.3730 c3        1 MOL     -0.379278
     65 C22         4.6040   -2.0120    2.0550 c         1 MOL      0.785742
     66 O11         3.8530   -1.5130    2.9710 o         1 MOL     -0.738943
     67 O12         4.0050   -2.4350    1.0530 o         1 MOL     -0.738943
     68 H28         5.7340   -0.8490   -0.1590 hn        1 MOL      0.380492
     69 H29         7.9590   -2.2040    1.2840 h1        1 MOL      0.049051
     70 H30         6.4970   -1.5610    3.0450 hc        1 MOL      0.126524
     71 H31         6.1690   -3.3480    2.7540 hc        1 MOL      0.126524
     72 N7          6.4300   -3.1350   -1.0930 n         1 MOL     -0.063754
     73 C23         6.0840   -4.1200   -2.1380 c3        1 MOL     -0.254607
     74 C24         4.6600   -4.6900   -2.0540 c         1 MOL      0.580210
     75 O13         4.4350   -5.6590   -2.7430 o         1 MOL     -0.548989
     76 H32         6.7700   -2.2470   -1.4190 hn        1 MOL      0.215019
     77 H33         6.8230   -4.9240   -2.1960 h1        1 MOL      0.113848
     78 H34         6.1110   -3.5040   -3.0440 h1        1 MOL      0.113848
     79 N8          3.7160   -4.1290   -1.2440 n         1 MOL     -0.221952
     80 C25         2.3540   -4.5930   -1.1000 c3        1 MOL     -0.316149
     81 C26         1.2870   -3.4380   -1.0880 c         1 MOL      0.930380
     82 O14         1.6470   -2.3130   -0.7540 o         1 MOL     -0.697340
     83 C27         2.1840   -5.4570    0.1780 c3        1 MOL      0.438552
     84 C28         2.9160   -6.8130   -0.0180 c3        1 MOL     -0.538669
     85 O15         2.7180   -4.7970    1.3120 oh        1 MOL     -0.609767
     86 H35         3.9250   -3.1810   -0.9720 hn        1 MOL      0.209316
     87 H36         2.1040   -5.2800   -1.9050 h1        1 MOL      0.102949
     88 H37         1.1440   -5.5900    0.4620 h1        1 MOL     -0.012392
     89 H38         3.2630   -4.0580    1.0340 ho        1 MOL      0.439310
     90 H39         4.0020   -6.7090    0.0060 hc        1 MOL      0.144271
     91 H40         2.5720   -7.4980    0.7650 hc        1 MOL      0.144271
     92 H41         2.6120   -7.1600   -1.0020 hc        1 MOL      0.144271
     93 N9          0.0820   -3.8290   -1.5650 n         1 MOL     -0.857452
     94 C29        -1.0700   -2.9710   -1.8270 c3        1 MOL      0.139054
     95 C30        -2.2850   -3.4380   -0.9990 c         1 MOL      0.584284
     96 O16        -2.7780   -4.5480   -1.1670 o         1 MOL     -0.570651
     97 C31        -1.3890   -2.9810   -3.3020 c3        1 MOL      0.191837
     98 C32        -0.2260   -2.3570   -4.0920 c3        1 MOL      0.178870
     99 C33        -2.6610   -2.1810   -3.6650 c3        1 MOL     -0.600465
    100 C34        -0.4010   -2.1590   -5.6540 c3        1 MOL     -0.288693
    101 H42         0.1160   -4.7780   -1.9170 hn        1 MOL      0.355090
    102 H43        -0.7310   -1.9560   -1.6180 h1        1 MOL      0.091238
    103 H44        -1.5560   -3.9970   -3.6620 hc        1 MOL     -0.000045
    104 H45         0.6710   -2.9280   -3.8700 hc        1 MOL     -0.027159
    105 H46        -0.0010   -1.3790   -3.6840 hc        1 MOL     -0.027159
    106 H47        -3.0410   -2.3180   -4.6810 hc        1 MOL      0.138372
    107 H48        -3.4620   -2.5160   -3.0080 hc        1 MOL      0.138372
    108 H49        -2.3850   -1.1280   -3.6940 hc        1 MOL      0.138372
    109 H50         0.4600   -1.5820   -5.9970 hc        1 MOL      0.068723
    110 H51        -0.5270   -3.0630   -6.2530 hc        1 MOL      0.068723
    111 H52        -1.2980   -1.5760   -5.8680 hc        1 MOL      0.068723
    112 N10        -2.8090   -2.6050   -0.1480 n         1 MOL     -0.244185
    113 C35        -4.0240   -2.7680    0.6070 c3        1 MOL      0.009701
    114 C36        -5.2630   -2.2600   -0.1310 c         1 MOL      0.353785
    115 O17        -5.1680   -1.4770   -0.9760 o         1 MOL     -0.299409
    116 C37        -3.8690   -2.0650    1.9980 c3        1 MOL      0.180290
    117 C38        -2.5810   -2.4910    2.6750 c3        1 MOL     -0.226103
    118 O18        -3.7950   -0.6590    1.7720 oh        1 MOL     -0.383899
    119 H53        -2.3880   -1.7030    0.0110 hn        1 MOL      0.164203
    120 H54        -4.1500   -3.8460    0.7400 h1        1 MOL      0.071018
    121 H55        -4.6550   -2.3800    2.6880 h1        1 MOL      0.012790
    122 H56        -3.1860   -0.1640    2.3290 ho        1 MOL      0.352686
    123 H57        -2.6650   -3.5580    2.8880 hc        1 MOL      0.055781
    124 H58        -1.6950   -2.2360    2.0890 hc        1 MOL      0.055781
    125 H59        -2.4840   -1.9030    3.5860 hc        1 MOL      0.055781
    126 N11        -6.4160   -2.6890    0.3070 n         1 MOL     -0.278040
    127 C39        -7.7820   -2.1440   -0.0590 c3        1 MOL     -0.161094
    128 C40        -7.9070   -0.5700    0.0760 c         1 MOL      0.337941
    129 O19        -8.4350    0.0300   -0.8370 o         1 MOL     -0.468172
    130 C41        -8.9340   -2.8790    0.6550 c3        1 MOL      0.322961
    131 C42        -9.0410   -4.2700    0.0890 c3        1 MOL     -0.391841
    132 O20        -8.6190   -3.1180    2.0130 oh        1 MOL     -0.698854
    133 H60        -6.3300   -3.4550    0.9550 hn        1 MOL      0.245718
    134 H61        -7.9670   -2.3430   -1.1200 h1        1 MOL      0.152606
    135 H62        -9.8970   -2.3700    0.5730 h1        1 MOL      0.068178
    136 H63        -9.0060   -3.9290    2.3540 ho        1 MOL      0.441287
    137 H64        -9.8510   -4.7870    0.6000 hc        1 MOL      0.108710
    138 H65        -9.2220   -4.1460   -0.9770 hc        1 MOL      0.108710
    139 H66        -8.0750   -4.7480    0.2470 hc        1 MOL      0.108710
    140 N12        -7.2740   -0.0510    1.1170 n         1 MOL     -0.106899
    141 C43        -7.1570    1.4560    1.2720 c3        1 MOL     -0.034104
    142 C44        -6.0970    2.1650    0.4520 c         1 MOL      0.431574
    143 O21        -6.2950    3.3430    0.1370 o         1 MOL     -0.528063
    144 C45        -7.0680    1.8460    2.7370 c3        1 MOL     -0.220389
    145 C46        -5.8680    1.3700    3.4790 c3        1 MOL      0.224160
    146 C47        -6.2180    1.5750    4.9380 c3        1 MOL     -0.058978
    147 C48        -5.1530    0.9530    5.7550 c3        1 MOL      0.082514
    148 N13        -4.0430    1.8870    5.9830 n4        1 MOL     -0.418900
    149 H67        -7.0740   -0.6900    1.8800 hn        1 MOL      0.200180
    150 H68        -8.0930    1.8410    0.8620 h1        1 MOL      0.115222
    151 H69        -7.9590    1.3810    3.1670 hc        1 MOL      0.069332
    152 H70        -7.0620    2.9330    2.8010 hc        1 MOL      0.069332
    153 H71        -5.0030    1.9180    3.1260 hc        1 MOL     -0.064977
    154 H72        -5.6260    0.3190    3.3330 hc        1 MOL     -0.064977
    155 H73        -7.1360    1.0690    5.2570 hc        1 MOL      0.053852
    156 H74        -6.3140    2.6360    5.1760 hc        1 MOL      0.053852
    157 H75        -4.6510    0.0960    5.3090 hx        1 MOL      0.066905
    158 H76        -5.6200    0.6310    6.6900 hx        1 MOL      0.066905
    159 H77        -3.2650    1.4360    6.4440 hn        1 MOL      0.337114
    160 H78        -3.7400    2.1850    5.0670 hn        1 MOL      0.337114
    161 H79        -4.2980    2.7090    6.5120 hn        1 MOL      0.337114
    162 N14        -5.0080    1.5050    0.0910 n         1 MOL      0.013450
    163 C49        -4.0550    2.0040   -0.9100 c3        1 MOL     -0.041186
    164 C50        -4.6010    2.0950   -2.3340 c         1 MOL      0.401871
    165 O22        -4.5010    3.1950   -3.0110 o         1 MOL     -0.560725
    166 C51        -2.7240    1.1060   -0.8740 c3        1 MOL      0.195061
    167 C52        -1.7580    1.8160    0.1410 c3        1 MOL     -0.081700
    168 C53        -0.4020    1.0010    0.3360 c         1 MOL      0.601222
    169 O23         0.6840    1.6360    0.3510 o         1 MOL     -0.653184
    170 O24        -0.3540   -0.2210    0.4970 o         1 MOL     -0.653184
    171 H80        -4.9010    0.5830    0.5000 hn        1 MOL     -0.156914
    172 H81        -3.7550    3.0040   -0.6230 h1        1 MOL      0.049919
    173 H82        -2.2860    1.0900   -1.8680 hc        1 MOL     -0.048498
    174 H83        -2.9290    0.0800   -0.5760 hc        1 MOL     -0.048498
    175 H84        -2.2080    1.9240    1.1290 hc        1 MOL     -0.003126
    176 H85        -1.5180    2.8240   -0.2040 hc        1 MOL     -0.003126
    177 N15        -5.2980    1.0600   -2.8110 n         1 MOL     -0.082069
    178 C54        -6.1280    1.2020   -4.0120 c3        1 MOL     -0.218345
    179 H86        -7.1210    0.7990   -3.8160 h1        1 MOL      0.099630
    180 H87        -6.2090    2.2570   -4.2750 h1        1 MOL      0.099630
    181 H88        -5.6710    0.6550   -4.8370 h1        1 MOL      0.099630
    182 H89        -5.2690    0.2360   -2.2170 hn        1 MOL      0.115255
    183 Ca1         2.0360   -0.5720    1.4000 Ca        1 MOL      1.763187
    184 O25         0.6910   -0.1430    3.7720 oh        1 MOL     -0.836474
    185 H90         0.4610   -0.9380    4.2440 ho        1 MOL      0.383678
    186 H91         1.0520    0.4440    4.4400 ho        1 MOL      0.383678
    187 O26         0.9700   -2.8740    2.2260 oh        1 MOL     -0.836474
    188 H92         1.1870   -3.7680    1.9790 ho        1 MOL      0.383678
    189 H93         0.4040   -2.9680    2.9900 ho        1 MOL      0.383678
@<TRIPOS>BOND
     1    1    2 1   
     2    1    4 1   
     3    1    5 1   
     4    1    6 1   
     5    2    3 2   
     6    2    7 1   
     7    7    8 1   
     8    7   15 1   
     9    8    9 1   
    10    8   11 1   
    11    8   16 1   
    12    9   10 2   
    13    9   19 1   
    14   11   12 1   
    15   11   17 1   
    16   11   18 1   
    17   12   13 1   
    18   12   14 1   
    19   19   20 1   
    20   19   28 1   
    21   20   21 1   
    22   20   23 1   
    23   20   29 1   
    24   21   22 2   
    25   21   41 1   
    26   23   24 1   
    27   23   30 1   
    28   23   31 1   
    29   24   25 1   
    30   24   32 1   
    31   24   33 1   
    32   25   26 1   
    33   25   34 1   
    34   25   35 1   
    35   26   27 1   
    36   26   36 1   
    37   26   37 1   
    38   27   38 1   
    39   27   39 1   
    40   27   40 1   
    41   41   42 1   
    42   41   49 1   
    43   42   43 1   
    44   42   45 1   
    45   42   50 1   
    46   43   44 2   
    47   43   53 1   
    48   45   46 1   
    49   45   51 1   
    50   45   52 1   
    51   46   47 1   
    52   46   48 1   
    53   53   54 1   
    54   53   57 1   
    55   54   55 1   
    56   54   58 1   
    57   54   59 1   
    58   55   56 2   
    59   55   60 1   
    60   60   61 1   
    61   60   68 1   
    62   61   62 1   
    63   61   64 1   
    64   61   69 1   
    65   62   63 2   
    66   62   72 1   
    67   64   65 1   
    68   64   70 1   
    69   64   71 1   
    70   65   66 1   
    71   65   67 1   
    72   72   73 1   
    73   72   76 1   
    74   73   74 1   
    75   73   77 1   
    76   73   78 1   
    77   74   75 2   
    78   74   79 1   
    79   79   80 1   
    80   79   86 1   
    81   80   81 1   
    82   80   83 1   
    83   80   87 1   
    84   81   82 2   
    85   81   93 1   
    86   83   84 1   
    87   83   85 1   
    88   83   88 1   
    89   84   90 1   
    90   84   91 1   
    91   84   92 1   
    92   85   89 1   
    93   93   94 1   
    94   93  101 1   
    95   94   95 1   
    96   94   97 1   
    97   94  102 1   
    98   95   96 2   
    99   95  112 1   
   100   97   98 1   
   101   97   99 1   
   102   97  103 1   
   103   98  100 1   
   104   98  104 1   
   105   98  105 1   
   106   99  106 1   
   107   99  107 1   
   108   99  108 1   
   109  100  109 1   
   110  100  110 1   
   111  100  111 1   
   112  112  113 1   
   113  112  119 1   
   114  113  114 1   
   115  113  116 1   
   116  113  120 1   
   117  114  115 2   
   118  114  126 1   
   119  116  117 1   
   120  116  118 1   
   121  116  121 1   
   122  117  123 1   
   123  117  124 1   
   124  117  125 1   
   125  118  122 1   
   126  126  127 1   
   127  126  133 1   
   128  127  128 1   
   129  127  130 1   
   130  127  134 1   
   131  128  129 2   
   132  128  140 1   
   133  130  131 1   
   134  130  132 1   
   135  130  135 1   
   136  131  137 1   
   137  131  138 1   
   138  131  139 1   
   139  132  136 1   
   140  140  141 1   
   141  140  149 1   
   142  141  142 1   
   143  141  144 1   
   144  141  150 1   
   145  142  143 2   
   146  142  162 1   
   147  144  145 1   
   148  144  151 1   
   149  144  152 1   
   150  145  146 1   
   151  145  153 1   
   152  145  154 1   
   153  146  147 1   
   154  146  155 1   
   155  146  156 1   
   156  147  148 1   
   157  147  157 1   
   158  147  158 1   
   159  148  159 1   
   160  148  160 1   
   161  148  161 1   
   162  162  163 1   
   163  162  171 1   
   164  163  164 1   
   165  163  166 1   
   166  163  172 1   
   167  164  165 2   
   168  164  177 1   
   169  166  167 1   
   170  166  173 1   
   171  166  174 1   
   172  167  168 1   
   173  167  175 1   
   174  167  176 1   
   175  168  169 1   
   176  168  170 1   
   177  177  178 1   
   178  177  182 1   
   179  178  179 1   
   180  178  180 1   
   181  178  181 1   
   182  184  185 1   
   183  184  186 1   
   184  187  188 1   
   185  187  189 1   
@<TRIPOS>SUBSTRUCTURE
     1 MOL         1 TEMP              0 ****  ****    0 ROOT
