@<TRIPOS>MOLECULE
MOL
  175   173     1     0     0
SMALL
resp


@<TRIPOS>ATOM
      1 C1          0.6240    3.8130    5.6160 c3        1 MOL     -0.437321
      2 C2          0.0620    3.8030    4.1520 c         1 MOL      0.703369
      3 O1          0.7770    3.8630    3.1550 o         1 MOL     -0.510165
      4 H1          1.5350    3.2170    5.6600 hc        1 MOL      0.109172
      5 H2          0.8460    4.8380    5.9140 hc        1 MOL      0.109172
      6 H3         -0.1190    3.3900    6.2930 hc        1 MOL      0.109172
      7 N1         -1.2770    3.8730    4.0620 n         1 MOL     -0.634221
      8 C3         -2.0440    3.7110    2.8970 c3        1 MOL      0.184072
      9 C4         -2.2070    4.8930    1.9960 c         1 MOL      0.579666
     10 O2         -2.5030    6.0300    2.4160 o         1 MOL     -0.607967
     11 C5         -3.4240    2.9770    3.1610 c3        1 MOL     -0.355577
     12 C6         -3.9360    2.3330    1.8550 c         1 MOL      0.765139
     13 O3         -5.0880    1.8440    1.8600 o         1 MOL     -0.677673
     14 O4         -3.2320    2.1260    0.8370 o         1 MOL     -0.677673
     15 H4         -1.8020    3.8810    4.9270 hn        1 MOL      0.327243
     16 H5         -1.3450    3.0740    2.3510 h1        1 MOL      0.052941
     17 H6         -4.1790    3.6730    3.5370 hc        1 MOL      0.082133
     18 H7         -3.2470    2.2110    3.9180 hc        1 MOL      0.082133
     19 N2         -2.0130    4.7040    0.6950 n         1 MOL     -0.394523
     20 C7         -2.2100    5.6800   -0.3760 c3        1 MOL      0.099674
     21 C8         -3.3370    5.3450   -1.4070 c         1 MOL      0.403598
     22 O5         -3.4510    6.0300   -2.3990 o         1 MOL     -0.549253
     23 C9         -0.7910    5.7770   -1.1090 c3        1 MOL     -0.169404
     24 H8         -1.7670    3.7450    0.5010 hn        1 MOL      0.249643
     25 H9         -2.4960    6.6150    0.1040 h1        1 MOL      0.057669
     26 H10         0.0260    6.1870   -0.5120 hc        1 MOL      0.054983
     27 H11        -0.4830    4.7900   -1.4630 hc        1 MOL      0.054983
     28 H12        -0.7730    6.3780   -2.0220 hc        1 MOL      0.054983
     29 N3         -4.0020    4.1980   -1.2950 n         1 MOL     -0.192163
     30 C10        -4.9110    3.6430   -2.2930 c3        1 MOL      0.160055
     31 C11        -6.2190    2.9980   -1.8470 c         1 MOL      0.301562
     32 O6         -7.2790    3.1050   -2.5230 o         1 MOL     -0.547502
     33 C12        -4.0960    2.7190   -3.2140 c3        1 MOL     -0.134982
     34 C13        -3.3340    1.5880   -2.4970 c         1 MOL      0.658291
     35 O7         -2.0980    1.3480   -2.7260 o         1 MOL     -0.681054
     36 O8         -4.0090    0.9090   -1.6710 o         1 MOL     -0.681054
     37 H13        -3.8880    3.7310   -0.4060 hn        1 MOL      0.123026
     38 H14        -5.2690    4.5360   -2.7970 h1        1 MOL      0.036090
     39 H15        -3.4160    3.3000   -3.8410 hc        1 MOL      0.031773
     40 H16        -4.8320    2.2860   -3.8880 hc        1 MOL      0.031773
     41 N4         -6.2540    2.1990   -0.7820 n         1 MOL     -0.150188
     42 C14        -7.4720    1.3960   -0.4040 c3        1 MOL     -0.155140
     43 C15        -7.5130   -0.0020   -0.9100 c         1 MOL      0.413385
     44 O9         -8.5700   -0.7220   -0.8000 o         1 MOL     -0.585071
     45 H17        -5.4640    2.1350   -0.1570 hn        1 MOL      0.132073
     46 H18        -8.3420    1.9680   -0.7250 h1        1 MOL      0.115127
     47 H19        -7.5960    1.4020    0.6800 h1        1 MOL      0.115127
     48 N5         -6.4070   -0.5330   -1.5150 n         1 MOL     -0.182682
     49 C16        -6.4010   -1.8560   -2.1580 c3        1 MOL     -0.140733
     50 C17        -6.3990   -3.1220   -1.2610 c         1 MOL      0.542386
     51 O10        -6.7470   -4.1870   -1.7010 o         1 MOL     -0.565696
     52 C18        -5.2480   -1.8450   -3.2120 c3        1 MOL      0.101955
     53 C19        -3.7810   -2.0890   -2.7650 c         1 MOL      0.391073
     54 N6         -2.9250   -2.2890   -3.6770 n         1 MOL     -0.532593
     55 O11        -3.4050   -2.1120   -1.5880 o         1 MOL     -0.445188
     56 H20        -5.6040    0.0650   -1.6360 hn        1 MOL      0.277709
     57 H21        -7.2630   -1.9790   -2.8090 h1        1 MOL      0.108685
     58 H22        -5.2620   -0.8700   -3.6910 hc        1 MOL     -0.016305
     59 H23        -5.5000   -2.4970   -4.0470 hc        1 MOL     -0.016305
     60 H24        -3.1590   -2.4990   -4.6380 hn        1 MOL      0.308212
     61 H25        -1.9470   -2.2980   -3.4150 hn        1 MOL      0.308212
     62 N7         -6.1170   -2.9620    0.0440 n         1 MOL     -0.197534
     63 C20        -6.2870   -4.0230    1.0610 c3        1 MOL     -0.269969
     64 C21        -4.9400   -4.5790    1.4540 c         1 MOL      0.571810
     65 O12        -4.9720   -5.5490    2.2480 o         1 MOL     -0.605950
     66 H26        -5.6660   -2.0860    0.2500 hn        1 MOL      0.156497
     67 H27        -6.8270   -4.8620    0.6020 h1        1 MOL      0.135495
     68 H28        -6.7970   -3.6820    1.9660 h1        1 MOL      0.135495
     69 N8         -3.8610   -3.9920    1.0240 n         1 MOL     -0.102565
     70 C22        -2.4590   -4.5410    1.2920 c3        1 MOL     -0.553355
     71 C23        -1.4310   -3.4910    1.5310 c         1 MOL      0.880554
     72 O13        -1.5620   -2.4210    0.9050 o         1 MOL     -0.732864
     73 C24        -1.9770   -5.5010    0.2010 c3        1 MOL      0.516185
     74 C25        -2.7750   -6.7760    0.0740 c3        1 MOL     -0.317515
     75 O14        -2.2120   -4.9010   -1.0860 oh        1 MOL     -0.603335
     76 H29        -3.9920   -3.1400    0.5030 hn        1 MOL      0.094343
     77 H30        -2.4970   -5.0830    2.2410 h1        1 MOL      0.159438
     78 H31        -0.9200   -5.7790    0.2620 h1        1 MOL      0.014228
     79 H32        -2.2860   -3.9570   -0.9170 ho        1 MOL      0.353970
     80 H33        -2.9800   -7.1230    1.0820 hc        1 MOL      0.076591
     81 H34        -3.7600   -6.7760   -0.3950 hc        1 MOL      0.076591
     82 H35        -2.2120   -7.6120   -0.3400 hc        1 MOL      0.076591
     83 N9         -0.3460   -3.8130    2.1970 n         1 MOL     -0.696119
     84 C26         0.9470   -3.1020    2.1670 c3        1 MOL      0.038837
     85 C27         1.4970   -3.3000    0.7270 c         1 MOL      0.758774
     86 O15         1.5630   -4.4290    0.3000 o         1 MOL     -0.607429
     87 C28         1.9090   -3.6050    3.3500 c3        1 MOL      0.020625
     88 C29         1.5830   -2.8120    4.6360 c3        1 MOL      0.259017
     89 C30         3.3960   -3.4020    3.0230 c3        1 MOL     -0.163152
     90 C31         2.0680   -3.4570    5.9280 c3        1 MOL     -0.259222
     91 H36        -0.3040   -4.6760    2.7260 hn        1 MOL      0.323027
     92 H37         0.7180   -2.0490    2.2980 h1        1 MOL      0.038759
     93 H38         1.6970   -4.6650    3.4870 hc        1 MOL      0.017511
     94 H39         0.5160   -2.7280    4.8670 hc        1 MOL     -0.046116
     95 H40         1.8280   -1.7630    4.4440 hc        1 MOL     -0.046116
     96 H41         3.9800   -3.6480    3.9060 hc        1 MOL      0.025555
     97 H42         3.5820   -4.0970    2.1980 hc        1 MOL      0.025555
     98 H43         3.5160   -2.4390    2.5240 hc        1 MOL      0.025555
     99 H44         3.0920   -3.0950    6.0280 hc        1 MOL      0.052757
    100 H45         1.5390   -3.0670    6.7960 hc        1 MOL      0.052757
    101 H46         1.9000   -4.5410    5.9270 hc        1 MOL      0.052757
    102 N10         1.8150   -2.2080   -0.0360 n         1 MOL     -0.384435
    103 C32         2.6390   -2.0980   -1.2640 c3        1 MOL      0.046441
    104 C33         4.0860   -1.6150   -0.8930 c         1 MOL      0.507592
    105 O16         4.3350   -1.1760    0.1970 o         1 MOL     -0.402432
    106 C34         1.9220   -1.1860   -2.2820 c3        1 MOL     -0.306933
    107 C35         0.4970   -1.6020   -2.7440 c         1 MOL      0.756538
    108 O17        -0.4660   -1.1830   -2.0440 o         1 MOL     -0.683692
    109 O18         0.2830   -2.1870   -3.8110 o         1 MOL     -0.683692
    110 H47         1.5370   -1.3200    0.3360 hn        1 MOL      0.190766
    111 H48         2.8610   -3.0530   -1.7510 h1        1 MOL      0.063825
    112 H49         2.6270   -1.2000   -3.1080 hc        1 MOL      0.078898
    113 H50         1.8840   -0.2150   -1.8060 hc        1 MOL      0.078898
    114 N11         5.1170   -1.6660   -1.7930 n         1 MOL     -0.712580
    115 C36         6.4690   -1.2240   -1.5280 c3        1 MOL      0.434232
    116 C37         6.6940    0.2370   -1.2650 c         1 MOL      0.434321
    117 O19         7.2180    0.4860   -0.2030 o         1 MOL     -0.544882
    118 C38         7.2150   -1.7400   -2.7140 c3        1 MOL     -0.144313
    119 C39         8.6790   -1.5470   -2.3920 ca        1 MOL      0.002789
    120 C40         9.3860   -0.3990   -2.6690 ca        1 MOL     -0.103701
    121 C41         9.3610   -2.5120   -1.6560 ca        1 MOL     -0.103701
    122 C42        10.7160   -0.1020   -2.2190 ca        1 MOL     -0.166514
    123 C43        10.7010   -2.3600   -1.2740 ca        1 MOL     -0.166514
    124 C44        11.3540   -1.0930   -1.4500 ca        1 MOL     -0.079790
    125 H51         4.7780   -1.9820   -2.6820 hn        1 MOL      0.336062
    126 H52         7.0090   -1.7970   -0.7820 h1        1 MOL      0.026349
    127 H53         6.9830   -1.1610   -3.6080 hc        1 MOL      0.053684
    128 H54         7.0390   -2.8010   -2.9110 hc        1 MOL      0.053684
    129 H55         8.9790    0.3910   -3.2920 ha        1 MOL      0.095272
    130 H56         8.8810   -3.4260   -1.3290 ha        1 MOL      0.095272
    131 H57        11.1070    0.8850   -2.4210 ha        1 MOL      0.125645
    132 H58        11.2060   -3.1150   -0.6940 ha        1 MOL      0.125645
    133 H59        12.2940   -0.8500   -0.9760 ha        1 MOL      0.101469
    134 N12         6.2510    1.2530   -2.0650 n         1 MOL     -0.123269
    135 C45         6.4250    2.6840   -1.6380 c3        1 MOL     -0.095929
    136 C46         5.7110    2.9890   -0.2920 c         1 MOL      0.402883
    137 O20         5.8260    4.0430    0.2870 o         1 MOL     -0.511944
    138 C47         5.8170    3.4470   -2.8150 c3        1 MOL     -0.156429
    139 C48         4.7020    2.4630   -3.3790 c3        1 MOL      0.076873
    140 C49         5.3910    1.1200   -3.2330 c3        1 MOL      0.022511
    141 H60         7.4790    2.9780   -1.6220 h1        1 MOL      0.118356
    142 H61         5.3150    4.3560   -2.4770 hc        1 MOL      0.066659
    143 H62         6.5900    3.6470   -3.5570 hc        1 MOL      0.066659
    144 H63         3.8530    2.5830   -2.7150 hc        1 MOL      0.018252
    145 H64         4.4610    2.7110   -4.4140 hc        1 MOL      0.018252
    146 H65         4.5830    0.3780   -3.2110 h1        1 MOL     -0.006737
    147 H66         6.0060    0.9190   -4.1020 h1        1 MOL     -0.006737
    148 N13         4.8620    2.0680    0.3010 n         1 MOL     -0.130782
    149 C50         4.2370    2.1610    1.6760 c3        1 MOL     -0.099837
    150 C51         4.9130    1.2960    2.7540 c         1 MOL      0.420159
    151 O21         4.9180    1.6460    3.9600 o         1 MOL     -0.554882
    152 C52         2.7240    1.6950    1.6480 c3        1 MOL      0.176244
    153 C53         1.8960    2.0030    0.3570 c3        1 MOL     -0.048997
    154 C54         0.5200    1.3700    0.4790 c         1 MOL      0.580666
    155 O22        -0.4340    1.8900   -0.0620 o         1 MOL     -0.652075
    156 O23         0.3610    0.2380    0.9690 o         1 MOL     -0.652075
    157 H67         4.8150    1.1780   -0.1720 hn        1 MOL      0.164764
    158 H68         4.3640    3.1850    2.0300 h1        1 MOL      0.112348
    159 H69         2.3020    2.2280    2.5060 hc        1 MOL     -0.043444
    160 H70         2.6840    0.6240    1.8270 hc        1 MOL     -0.043444
    161 H71         2.4550    1.7140   -0.5330 hc        1 MOL      0.015895
    162 H72         1.7160    3.0750    0.3640 hc        1 MOL      0.015895
    163 N14         5.6010    0.1930    2.4020 n         1 MOL     -0.090749
    164 C55         6.5600   -0.4290    3.3460 c3        1 MOL     -0.197335
    165 H73         6.4750   -1.5140    3.2860 h1        1 MOL      0.078747
    166 H74         7.5740   -0.1280    3.0850 h1        1 MOL      0.078747
    167 H75         6.3340   -0.1040    4.3610 h1        1 MOL      0.078747
    168 H76         5.5790   -0.2070    1.4710 hn        1 MOL      0.113709
    169 Ca1        -2.1380   -0.0800   -0.2760 Ca        1 MOL      1.706705
    170 O24        -1.8240    0.1740    2.7110 oh        1 MOL     -0.661612
    171 H77        -1.8650   -0.0650    3.6430 ho        1 MOL      0.336689
    172 H78        -0.8910    0.2390    2.5200 ho        1 MOL      0.336689
    173 O25        -4.4440   -0.7710    1.0720 oh        1 MOL     -0.661612
    174 H79        -4.3660   -1.3410    1.8430 ho        1 MOL      0.336689
    175 H80        -4.7200    0.0800    1.4250 ho        1 MOL      0.336689
@<TRIPOS>BOND
     1    1    2 1   
     2    1    4 1   
     3    1    5 1   
     4    1    6 1   
     5    2    3 2   
     6    2    7 1   
     7    7    8 1   
     8    7   15 1   
     9    8    9 1   
    10    8   11 1   
    11    8   16 1   
    12    9   10 2   
    13    9   19 1   
    14   11   12 1   
    15   11   17 1   
    16   11   18 1   
    17   12   13 1   
    18   12   14 1   
    19   19   20 1   
    20   19   24 1   
    21   20   21 1   
    22   20   23 1   
    23   20   25 1   
    24   21   22 2   
    25   21   29 1   
    26   23   26 1   
    27   23   27 1   
    28   23   28 1   
    29   29   30 1   
    30   29   37 1   
    31   30   31 1   
    32   30   33 1   
    33   30   38 1   
    34   31   32 2   
    35   31   41 1   
    36   33   34 1   
    37   33   39 1   
    38   33   40 1   
    39   34   35 1   
    40   34   36 1   
    41   41   42 1   
    42   41   45 1   
    43   42   43 1   
    44   42   46 1   
    45   42   47 1   
    46   43   44 2   
    47   43   48 1   
    48   48   49 1   
    49   48   56 1   
    50   49   50 1   
    51   49   52 1   
    52   49   57 1   
    53   50   51 2   
    54   50   62 1   
    55   52   53 1   
    56   52   58 1   
    57   52   59 1   
    58   53   54 1   
    59   53   55 2   
    60   54   60 1   
    61   54   61 1   
    62   62   63 1   
    63   62   66 1   
    64   63   64 1   
    65   63   67 1   
    66   63   68 1   
    67   64   65 2   
    68   64   69 1   
    69   69   70 1   
    70   69   76 1   
    71   70   71 1   
    72   70   73 1   
    73   70   77 1   
    74   71   72 2   
    75   71   83 1   
    76   73   74 1   
    77   73   75 1   
    78   73   78 1   
    79   74   80 1   
    80   74   81 1   
    81   74   82 1   
    82   75   79 1   
    83   83   84 1   
    84   83   91 1   
    85   84   85 1   
    86   84   87 1   
    87   84   92 1   
    88   85   86 2   
    89   85  102 1   
    90   87   88 1   
    91   87   89 1   
    92   87   93 1   
    93   88   90 1   
    94   88   94 1   
    95   88   95 1   
    96   89   96 1   
    97   89   97 1   
    98   89   98 1   
    99   90   99 1   
   100   90  100 1   
   101   90  101 1   
   102  102  103 1   
   103  102  110 1   
   104  103  104 1   
   105  103  106 1   
   106  103  111 1   
   107  104  105 2   
   108  104  114 1   
   109  106  107 1   
   110  106  112 1   
   111  106  113 1   
   112  107  108 1   
   113  107  109 1   
   114  114  115 1   
   115  114  125 1   
   116  115  116 1   
   117  115  118 1   
   118  115  126 1   
   119  116  117 2   
   120  116  134 1   
   121  118  119 1   
   122  118  127 1   
   123  118  128 1   
   124  119  120 ar  
   125  119  121 ar  
   126  120  122 ar  
   127  120  129 1   
   128  121  123 ar  
   129  121  130 1   
   130  122  124 ar  
   131  122  131 1   
   132  123  124 ar  
   133  123  132 1   
   134  124  133 1   
   135  134  135 1   
   136  134  140 1   
   137  135  136 1   
   138  135  138 1   
   139  135  141 1   
   140  136  137 2   
   141  136  148 1   
   142  138  139 1   
   143  138  142 1   
   144  138  143 1   
   145  139  140 1   
   146  139  144 1   
   147  139  145 1   
   148  140  146 1   
   149  140  147 1   
   150  148  149 1   
   151  148  157 1   
   152  149  150 1   
   153  149  152 1   
   154  149  158 1   
   155  150  151 2   
   156  150  163 1   
   157  152  153 1   
   158  152  159 1   
   159  152  160 1   
   160  153  154 1   
   161  153  161 1   
   162  153  162 1   
   163  154  155 1   
   164  154  156 1   
   165  163  164 1   
   166  163  168 1   
   167  164  165 1   
   168  164  166 1   
   169  164  167 1   
   170  170  171 1   
   171  170  172 1   
   172  173  174 1   
   173  173  175 1   
@<TRIPOS>SUBSTRUCTURE
     1 MOL         1 TEMP              0 ****  ****    0 ROOT
