@<TRIPOS>MOLECULE
MOL
  179   176     1     0     0
SMALL
resp


@<TRIPOS>ATOM
      1 C1          2.1970    3.5750    4.0340 c3        1 MOL     -0.407252
      2 C2          1.2940    3.1590    2.9490 c         1 MOL      0.784756
      3 O1          1.6050    3.3710    1.7970 o         1 MOL     -0.606206
      4 H1          3.1610    3.8630    3.6130 hc        1 MOL      0.096213
      5 H2          1.7640    4.4240    4.5630 hc        1 MOL      0.096213
      6 H3          2.3380    2.7470    4.7280 hc        1 MOL      0.096213
      7 N1          0.0480    2.7210    3.2570 n         1 MOL     -0.666140
      8 C3         -0.9430    2.4710    2.1540 c3        1 MOL      0.201308
      9 C4         -1.7020    3.7340    1.7840 c         1 MOL      0.522732
     10 O2         -2.7770    3.9940    2.2430 o         1 MOL     -0.468532
     11 C5         -1.8310    1.3030    2.5700 c3        1 MOL     -0.148827
     12 C6         -3.0200    1.1510    1.5880 c         1 MOL      0.477017
     13 O3         -4.1100    0.9890    2.0890 o         1 MOL     -0.587127
     14 O4         -2.7370    1.1000    0.3870 o         1 MOL     -0.587127
     15 H4         -0.2230    2.6830    4.2310 hn        1 MOL      0.335776
     16 H5         -0.4030    2.1370    1.2710 h1        1 MOL      0.049234
     17 H6         -2.2830    1.3600    3.5610 hc        1 MOL      0.052086
     18 H7         -1.1880    0.4240    2.5910 hc        1 MOL      0.052086
     19 N2         -1.1040    4.5700    0.9050 n         1 MOL     -0.601166
     20 C7         -1.5220    5.9430    0.4600 c3        1 MOL      0.317131
     21 C8         -2.7700    5.8700   -0.4380 c         1 MOL      0.349622
     22 O5         -3.6790    6.6710   -0.3600 o         1 MOL     -0.551530
     23 C9         -0.3200    6.5840   -0.3230 c3        1 MOL     -0.426236
     24 C10         0.7730    7.1740    0.6030 c3        1 MOL      0.115205
     25 C11         1.9940    7.8980   -0.0200 c3        1 MOL     -0.074486
     26 C12         3.1410    8.2890    0.8930 c3        1 MOL     -0.024626
     27 N3          3.9290    7.1580    1.4130 n4        1 MOL     -0.440264
     28 H8         -0.1770    4.3280    0.5990 hn        1 MOL      0.362006
     29 H9         -1.6780    6.6080    1.3090 h1        1 MOL      0.019449
     30 H10        -0.8350    7.3490   -0.9020 hc        1 MOL      0.121790
     31 H11         0.1450    5.7960   -0.9120 hc        1 MOL      0.121790
     32 H12         1.1200    6.4340    1.3240 hc        1 MOL      0.013178
     33 H13         0.2690    8.0010    1.1020 hc        1 MOL      0.013178
     34 H14         1.5720    8.8280   -0.4120 hc        1 MOL      0.066739
     35 H15         2.3280    7.2770   -0.8500 hc        1 MOL      0.066739
     36 H16         2.6330    8.8150    1.7040 hx        1 MOL      0.094769
     37 H17         3.7860    8.9560    0.3360 hx        1 MOL      0.094769
     38 H18         3.4680    6.7220    2.1940 hn        1 MOL      0.364012
     39 H19         4.2120    6.5970    0.6260 hn        1 MOL      0.364012
     40 H20         4.8110    7.5300    1.7200 hn        1 MOL      0.364012
     41 N4         -2.8800    4.8690   -1.2190 n         1 MOL     -0.129899
     42 C13        -3.8410    4.6820   -2.2800 c3        1 MOL      0.011740
     43 C14        -5.0690    4.0720   -1.5910 c         1 MOL      0.412078
     44 O6         -6.1550    4.2220   -2.1310 o         1 MOL     -0.558693
     45 C15        -3.2860    3.6950   -3.2790 c3        1 MOL     -0.211346
     46 C16        -2.6190    2.4690   -2.7350 c         1 MOL      0.733809
     47 O7         -3.0870    1.3240   -3.0280 o         1 MOL     -0.733073
     48 O8         -1.6850    2.5310   -1.9610 o         1 MOL     -0.733073
     49 H21        -2.2020    4.1190   -1.2050 hn        1 MOL      0.143174
     50 H22        -4.0720    5.6210   -2.7850 h1        1 MOL      0.097250
     51 H23        -2.5020    4.2170   -3.8340 hc        1 MOL      0.061501
     52 H24        -4.0920    3.4470   -3.9690 hc        1 MOL      0.061501
     53 N5         -4.9250    3.4110   -0.4660 n         1 MOL      0.086304
     54 C17        -6.0370    3.0210    0.4940 c3        1 MOL     -0.187772
     55 C18        -6.6920    1.7290    0.0330 c         1 MOL      0.558475
     56 O9         -7.9180    1.5530    0.2600 o         1 MOL     -0.581136
     57 H25        -3.9840    3.3340   -0.1160 hn        1 MOL     -0.001168
     58 H26        -6.7720    3.8270    0.5590 h1        1 MOL      0.111180
     59 H27        -5.5370    2.8590    1.4480 h1        1 MOL      0.111180
     60 N6         -5.9590    0.8520   -0.6730 n         1 MOL     -0.289799
     61 C19        -6.5780   -0.3940   -1.1180 c3        1 MOL     -0.031596
     62 C20        -6.4100   -1.5290   -0.1060 c         1 MOL      0.371039
     63 O10        -6.6150   -2.6920   -0.3810 o         1 MOL     -0.506452
     64 C21        -5.9850   -0.6830   -2.5160 c3        1 MOL     -0.173999
     65 C22        -4.6830   -1.3720   -2.6100 c         1 MOL      0.535839
     66 N7         -4.4380   -1.7890   -3.8300 n         1 MOL     -0.590886
     67 O11        -3.8940   -1.5340   -1.6860 o         1 MOL     -0.598899
     68 H28        -4.9860    1.0800   -0.7970 hn        1 MOL      0.109681
     69 H29        -7.6610   -0.2690   -1.2380 h1        1 MOL      0.141541
     70 H30        -5.8360    0.1850   -3.1500 hc        1 MOL      0.093355
     71 H31        -6.7320   -1.3060   -3.0120 hc        1 MOL      0.093355
     72 H32        -5.1760   -1.7930   -4.5190 hn        1 MOL      0.320650
     73 H33        -3.5690   -2.2830   -4.0120 hn        1 MOL      0.320650
     74 N8         -5.9030   -1.2020    1.0790 n         1 MOL     -0.126261
     75 C23        -5.7120   -2.1950    2.2100 c3        1 MOL     -0.403313
     76 C24        -4.4260   -3.0530    2.1450 c         1 MOL      0.671787
     77 O12        -4.3050   -3.9580    2.9380 o         1 MOL     -0.567716
     78 H34        -5.7980   -0.2220    1.2840 hn        1 MOL      0.245823
     79 H35        -6.6270   -2.7880    2.1720 h1        1 MOL      0.167176
     80 H36        -5.6840   -1.6290    3.1440 h1        1 MOL      0.167176
     81 N9         -3.4330   -2.8130    1.3450 n         1 MOL     -0.254388
     82 C25        -2.1340   -3.5150    1.3310 c3        1 MOL      0.042818
     83 C26        -0.8840   -2.5860    1.2040 c         1 MOL      0.501493
     84 O13        -0.8460   -1.5650    0.5130 o         1 MOL     -0.628913
     85 C27        -2.0480   -4.5230    0.1670 c3        1 MOL      0.038776
     86 C28        -3.1790   -5.5050    0.2120 ca        1 MOL     -0.079031
     87 C29        -3.1720   -6.6260    1.0870 ca        1 MOL     -0.125182
     88 C30        -4.3120   -5.2890   -0.6180 ca        1 MOL     -0.125182
     89 C31        -4.3140   -7.4720    1.1520 ca        1 MOL     -0.298167
     90 C32        -5.4160   -6.1600   -0.5940 ca        1 MOL     -0.298167
     91 C33        -5.4400   -7.2400    0.3360 ca        1 MOL      0.419673
     92 O14        -6.4980   -8.1590    0.2860 oh        1 MOL     -0.533036
     93 H37        -3.5900   -2.2010    0.5550 hn        1 MOL      0.145740
     94 H38        -2.0870   -4.1330    2.2330 h1        1 MOL      0.070177
     95 H39        -1.1740   -5.1580    0.3100 hc        1 MOL      0.016635
     96 H40        -1.9940   -4.1260   -0.8390 hc        1 MOL      0.016635
     97 H41        -2.2870   -6.7920    1.6810 ha        1 MOL      0.144874
     98 H42        -4.3680   -4.4140   -1.2450 ha        1 MOL      0.144874
     99 H43        -4.2280   -8.3800    1.7300 ha        1 MOL      0.156443
    100 H44        -6.3010   -5.9190   -1.1530 ha        1 MOL      0.156443
    101 H45        -7.1280   -7.8480   -0.3660 ho        1 MOL      0.366358
    102 N10         0.1740   -3.0150    1.9420 n         1 MOL     -0.492146
    103 C34         1.5310   -2.4570    1.8350 c3        1 MOL     -0.089730
    104 C35         2.3370   -3.4410    1.0370 c         1 MOL      0.424141
    105 O15         2.3660   -4.6550    1.3200 o         1 MOL     -0.540917
    106 C36         1.9940   -2.2480    3.3210 c3        1 MOL      0.150124
    107 C37         1.1360   -1.1470    3.9100 c3        1 MOL      0.022176
    108 C38         3.5540   -2.0270    3.3920 c3        1 MOL     -0.098686
    109 C39         1.3830   -1.0870    5.4030 c3        1 MOL     -0.303177
    110 H46         0.1270   -3.9400    2.3470 hn        1 MOL      0.311715
    111 H47         1.5650   -1.4750    1.3710 h1        1 MOL      0.191640
    112 H48         1.8050   -3.1450    3.9010 hc        1 MOL      0.021416
    113 H49         0.0840   -1.3980    3.7850 hc        1 MOL      0.031198
    114 H50         1.4220   -0.1960    3.4640 hc        1 MOL      0.031198
    115 H51         3.9160   -2.2310    4.3990 hc        1 MOL      0.005332
    116 H52         4.0810   -2.5590    2.5930 hc        1 MOL      0.005332
    117 H53         3.7660   -0.9760    3.1750 hc        1 MOL      0.005332
    118 H54         2.4520   -1.1090    5.6320 hc        1 MOL      0.076016
    119 H55         0.9540   -0.1850    5.8560 hc        1 MOL      0.076016
    120 H56         1.1040   -2.0020    5.9190 hc        1 MOL      0.076016
    121 N11         3.1000   -2.9920    0.0830 n         1 MOL     -0.219401
    122 C40         4.2160   -3.7370   -0.5860 c3        1 MOL      0.046292
    123 C41         5.6210   -3.2750   -0.1550 c         1 MOL      0.393958
    124 O16         5.7050   -2.3120    0.6170 o         1 MOL     -0.334650
    125 C42         4.0410   -3.6300   -2.0770 c3        1 MOL     -0.060316
    126 O17         3.9110   -2.3440   -2.5720 oh        1 MOL     -0.541939
    127 H57         2.9840   -2.0520   -0.2650 hn        1 MOL      0.330032
    128 H58         4.0810   -4.8030   -0.4620 h1        1 MOL      0.055012
    129 H59         3.1250   -4.1660   -2.3150 h1        1 MOL      0.076245
    130 H60         4.9040   -4.0150   -2.6240 h1        1 MOL      0.076245
    131 H61         3.1370   -1.8430   -2.2950 ho        1 MOL      0.349132
    132 N12         6.7180   -3.8990   -0.6230 n         1 MOL     -0.483884
    133 C43         8.1530   -3.4340   -0.3680 c3        1 MOL      0.213502
    134 C44         8.2780   -2.0720   -0.8990 c         1 MOL      0.385229
    135 O18         8.6040   -1.1400   -0.1750 o         1 MOL     -0.478692
    136 C45         9.0940   -4.4800   -0.9270 c3        1 MOL     -0.178024
    137 H62         6.5470   -4.7390   -1.1490 hn        1 MOL      0.288191
    138 H63         8.1840   -3.4200    0.7250 h1        1 MOL      0.071676
    139 H64         9.2250   -4.3650   -1.9980 hc        1 MOL      0.059439
    140 H65        10.0360   -4.4140   -0.3830 hc        1 MOL      0.059439
    141 H66         8.6140   -5.4410   -0.7730 hc        1 MOL      0.059439
    142 N13         8.0650   -1.7090   -2.1850 n         1 MOL     -0.311372
    143 C46         8.0410   -0.3670   -2.7900 c3        1 MOL      0.032598
    144 C47         7.3700    0.7440   -1.9240 c         1 MOL      0.450219
    145 O19         7.8840    1.8260   -1.7030 o         1 MOL     -0.502300
    146 C48         7.3040   -0.4280   -4.1360 c3        1 MOL     -0.357388
    147 H67         7.9130   -2.4370   -2.8640 hn        1 MOL      0.254457
    148 H68         9.1010   -0.1120   -2.8940 h1        1 MOL      0.082659
    149 H69         7.9290   -0.9680   -4.8530 hc        1 MOL      0.105532
    150 H70         6.3530   -0.9510   -4.1730 hc        1 MOL      0.105532
    151 H71         7.0850    0.5780   -4.4950 hc        1 MOL      0.105532
    152 N14         6.1200    0.4580   -1.4530 n         1 MOL     -0.001871
    153 C49         5.4080    1.3750   -0.5810 c3        1 MOL     -0.649411
    154 C50         6.1170    1.5710    0.7680 c         1 MOL      0.707608
    155 O20         6.0730    2.6790    1.2800 o         1 MOL     -0.611517
    156 C51         3.9460    0.9590   -0.3850 c3        1 MOL      0.669038
    157 C52         3.0960    0.9420   -1.6180 c3        1 MOL     -0.124713
    158 C53         1.8150    0.1500   -1.4090 c         1 MOL      0.652000
    159 O21         0.9040    0.6200   -0.7200 o         1 MOL     -0.724173
    160 O22         1.8130   -1.0600   -1.8530 o         1 MOL     -0.724173
    161 H72         5.6760   -0.4220   -1.6680 hn        1 MOL      0.098425
    162 H73         5.4210    2.3300   -1.0960 h1        1 MOL      0.188135
    163 H74         3.5210    1.6250    0.3680 hc        1 MOL     -0.167851
    164 H75         3.9000   -0.0490    0.0440 hc        1 MOL     -0.167851
    165 H76         3.6360    0.5540   -2.4800 hc        1 MOL     -0.006198
    166 H77         2.8990    1.9950   -1.8190 hc        1 MOL     -0.006198
    167 N15         6.6330    0.4630    1.3900 n         1 MOL     -0.136593
    168 C54         7.4720    0.5760    2.5960 c3        1 MOL     -0.388050
    169 H78         8.4180    1.0520    2.3370 h1        1 MOL      0.140858
    170 H79         6.9560    1.1790    3.3440 h1        1 MOL      0.140858
    171 H80         7.6650   -0.4170    3.0010 h1        1 MOL      0.140858
    172 H81         6.5550   -0.4240    0.9280 hn        1 MOL      0.078188
    173 Ca1        -1.5420   -0.1680   -1.5040 Ca        1 MOL      1.804769
    174 O23        -0.4950   -2.5700   -2.0700 oh        1 MOL     -0.845554
    175 H82        -0.4580   -3.4830   -2.3590 ho        1 MOL      0.410252
    176 H83         0.4100   -2.3480   -1.8450 ho        1 MOL      0.410252
    177 O24        -1.2690   -0.3870   -4.3630 oh        1 MOL     -0.845554
    178 H84        -0.3640   -0.0750   -4.4130 ho        1 MOL      0.410252
    179 H85        -1.4610   -0.7050   -5.2430 ho        1 MOL      0.410252
@<TRIPOS>BOND
     1    1    2 1   
     2    1    4 1   
     3    1    5 1   
     4    1    6 1   
     5    2    3 2   
     6    2    7 1   
     7    7    8 1   
     8    7   15 1   
     9    8    9 1   
    10    8   11 1   
    11    8   16 1   
    12    9   10 2   
    13    9   19 1   
    14   11   12 1   
    15   11   17 1   
    16   11   18 1   
    17   12   13 1   
    18   12   14 1   
    19   19   20 1   
    20   19   28 1   
    21   20   21 1   
    22   20   23 1   
    23   20   29 1   
    24   21   22 2   
    25   21   41 1   
    26   23   24 1   
    27   23   30 1   
    28   23   31 1   
    29   24   25 1   
    30   24   32 1   
    31   24   33 1   
    32   25   26 1   
    33   25   34 1   
    34   25   35 1   
    35   26   27 1   
    36   26   36 1   
    37   26   37 1   
    38   27   38 1   
    39   27   39 1   
    40   27   40 1   
    41   41   42 1   
    42   41   49 1   
    43   42   43 1   
    44   42   45 1   
    45   42   50 1   
    46   43   44 2   
    47   43   53 1   
    48   45   46 1   
    49   45   51 1   
    50   45   52 1   
    51   46   47 1   
    52   46   48 1   
    53   53   54 1   
    54   53   57 1   
    55   54   55 1   
    56   54   58 1   
    57   54   59 1   
    58   55   56 2   
    59   55   60 1   
    60   60   61 1   
    61   60   68 1   
    62   61   62 1   
    63   61   64 1   
    64   61   69 1   
    65   62   63 2   
    66   62   74 1   
    67   64   65 1   
    68   64   70 1   
    69   64   71 1   
    70   65   66 1   
    71   65   67 2   
    72   66   72 1   
    73   66   73 1   
    74   74   75 1   
    75   74   78 1   
    76   75   76 1   
    77   75   79 1   
    78   75   80 1   
    79   76   77 2   
    80   76   81 1   
    81   81   82 1   
    82   81   93 1   
    83   82   83 1   
    84   82   85 1   
    85   82   94 1   
    86   83   84 2   
    87   83  102 1   
    88   85   86 1   
    89   85   95 1   
    90   85   96 1   
    91   86   87 ar  
    92   86   88 ar  
    93   87   89 ar  
    94   87   97 1   
    95   88   90 ar  
    96   88   98 1   
    97   89   91 ar  
    98   89   99 1   
    99   90   91 ar  
   100   90  100 1   
   101   91   92 1   
   102   92  101 1   
   103  102  103 1   
   104  102  110 1   
   105  103  104 1   
   106  103  106 1   
   107  103  111 1   
   108  104  105 2   
   109  104  121 1   
   110  106  107 1   
   111  106  108 1   
   112  106  112 1   
   113  107  109 1   
   114  107  113 1   
   115  107  114 1   
   116  108  115 1   
   117  108  116 1   
   118  108  117 1   
   119  109  118 1   
   120  109  119 1   
   121  109  120 1   
   122  121  122 1   
   123  121  127 1   
   124  122  123 1   
   125  122  125 1   
   126  122  128 1   
   127  123  124 2   
   128  123  132 1   
   129  125  126 1   
   130  125  129 1   
   131  125  130 1   
   132  126  131 1   
   133  132  133 1   
   134  132  137 1   
   135  133  134 1   
   136  133  136 1   
   137  133  138 1   
   138  134  135 2   
   139  134  142 1   
   140  136  139 1   
   141  136  140 1   
   142  136  141 1   
   143  142  143 1   
   144  142  147 1   
   145  143  144 1   
   146  143  146 1   
   147  143  148 1   
   148  144  145 2   
   149  144  152 1   
   150  146  149 1   
   151  146  150 1   
   152  146  151 1   
   153  152  153 1   
   154  152  161 1   
   155  153  154 1   
   156  153  156 1   
   157  153  162 1   
   158  154  155 2   
   159  154  167 1   
   160  156  157 1   
   161  156  163 1   
   162  156  164 1   
   163  157  158 1   
   164  157  165 1   
   165  157  166 1   
   166  158  159 1   
   167  158  160 1   
   168  167  168 1   
   169  167  172 1   
   170  168  169 1   
   171  168  170 1   
   172  168  171 1   
   173  174  175 1   
   174  174  176 1   
   175  177  178 1   
   176  177  179 1   
@<TRIPOS>SUBSTRUCTURE
     1 MOL         1 TEMP              0 ****  ****    0 ROOT
