@<TRIPOS>MOLECULE
MOL
  189   185     1     0     0
SMALL
resp


@<TRIPOS>ATOM
      1 C1          1.1560   -3.5510    6.3890 c3        1 MOL     -0.416934
      2 C2          1.5070   -3.0900    4.9830 c         1 MOL      0.775532
      3 O1          1.4900   -1.9070    4.6740 o         1 MOL     -0.642139
      4 H1          1.8110   -3.0570    7.1060 hc        1 MOL      0.103738
      5 H2          0.1200   -3.2950    6.6070 hc        1 MOL      0.103738
      6 H3          1.2870   -4.6310    6.4610 hc        1 MOL      0.103738
      7 N1          1.8310   -3.9960    4.0860 n         1 MOL     -0.598660
      8 C3          2.4380   -3.5580    2.7930 c3        1 MOL      0.208710
      9 C4          2.4260   -4.7590    1.7980 c         1 MOL      0.490038
     10 O2          2.6140   -5.8720    2.3000 o         1 MOL     -0.579985
     11 C5          3.8940   -3.0280    2.9100 c3        1 MOL     -0.168759
     12 C6          4.4980   -2.8300    1.5090 c         1 MOL      0.639048
     13 O3          3.9150   -2.1930    0.6300 o         1 MOL     -0.650284
     14 O4          5.6100   -3.3860    1.3220 o         1 MOL     -0.650284
     15 H4          1.7730   -4.9800    4.3020 hn        1 MOL      0.320942
     16 H5          1.8400   -2.7370    2.4140 h1        1 MOL      0.022937
     17 H6          4.5160   -3.6890    3.5140 hc        1 MOL      0.025694
     18 H7          3.7980   -2.0630    3.4190 hc        1 MOL      0.025694
     19 N2          2.1460   -4.5520    0.5220 n         1 MOL     -0.047739
     20 C7          2.1200   -5.5480   -0.5410 c3        1 MOL     -0.148721
     21 C8          3.0280   -5.3150   -1.8140 c         1 MOL      0.619677
     22 O5          3.2930   -6.1940   -2.6440 o         1 MOL     -0.582161
     23 C9          0.6740   -6.0370   -0.9340 c3        1 MOL      0.091210
     24 C10        -0.3470   -4.9700   -1.4000 c3        1 MOL      0.049936
     25 C11        -0.0510   -6.6790    0.3090 c3        1 MOL     -0.192805
     26 C12         0.1490   -4.0800   -2.5410 c3        1 MOL     -0.319893
     27 H8          1.8870   -3.6280    0.2080 hn        1 MOL      0.008026
     28 H9          2.6260   -6.3810   -0.0670 h1        1 MOL      0.084041
     29 H10         0.7700   -6.7430   -1.7450 hc        1 MOL      0.000514
     30 H11        -0.5310   -4.3040   -0.5570 hc        1 MOL      0.017167
     31 H12        -1.3520   -5.3040   -1.6230 hc        1 MOL      0.017167
     32 H13        -1.1200   -6.7390    0.0900 hc        1 MOL      0.030576
     33 H14         0.2650   -7.7290    0.3860 hc        1 MOL      0.030576
     34 H15         0.1340   -6.1770    1.2580 hc        1 MOL      0.030576
     35 H16         1.0590   -3.5610   -2.2550 hc        1 MOL      0.084302
     36 H17         0.3160   -4.7060   -3.4210 hc        1 MOL      0.084302
     37 H18        -0.6660   -3.3920   -2.7350 hc        1 MOL      0.084302
     38 N3          3.6630   -4.1670   -1.8270 n         1 MOL     -0.520149
     39 C13         4.4200   -3.7030   -3.0190 c3        1 MOL      0.156753
     40 C14         5.7270   -2.9000   -2.7160 c         1 MOL      0.372841
     41 O6          6.5900   -2.6540   -3.6060 o         1 MOL     -0.580652
     42 C15         3.4750   -2.8660   -3.9440 c3        1 MOL     -0.327674
     43 C16         2.7830   -1.6630   -3.2760 c         1 MOL      0.879019
     44 O7          3.1050   -1.2130   -2.1460 o         1 MOL     -0.737464
     45 O8          1.8550   -1.0980   -3.8730 o         1 MOL     -0.737464
     46 H19         3.6820   -3.5760   -1.0120 hn        1 MOL      0.326691
     47 H20         4.8870   -4.4520   -3.6590 h1        1 MOL      0.075305
     48 H21         2.7190   -3.5520   -4.3210 hc        1 MOL      0.076791
     49 H22         3.9740   -2.3210   -4.7440 hc        1 MOL      0.076791
     50 N4          5.9530   -2.5640   -1.4600 n         1 MOL     -0.082844
     51 C17         7.1800   -1.9500   -0.8930 c3        1 MOL     -0.178148
     52 C18         7.4130   -0.5210   -1.2560 c         1 MOL      0.618368
     53 O9          8.5330   -0.0610   -1.1130 o         1 MOL     -0.632736
     54 H23         5.1350   -2.6430   -0.8660 hn        1 MOL      0.077449
     55 H24         7.9510   -2.5690   -1.3580 h1        1 MOL      0.088770
     56 H25         7.2110   -2.0130    0.1910 h1        1 MOL      0.088770
     57 N5          6.3350    0.1780   -1.6260 n         1 MOL     -0.178105
     58 C19         6.4340    1.4480   -2.3010 c3        1 MOL     -0.161917
     59 C20         6.7010    2.7180   -1.4190 c         1 MOL      0.453013
     60 O10         6.7380    3.7640   -1.9930 o         1 MOL     -0.509438
     61 C21         5.0960    1.7240   -3.1240 c3        1 MOL     -0.247057
     62 C22         3.7490    1.9520   -2.4680 c         1 MOL      0.783240
     63 O11         3.6680    1.8550   -1.1900 o         1 MOL     -0.698900
     64 O12         2.7540    2.1670   -3.1470 o         1 MOL     -0.698900
     65 H26         5.4420   -0.2860   -1.6950 hn        1 MOL      0.136172
     66 H27         7.2100    1.3370   -3.0570 h1        1 MOL      0.127500
     67 H28         4.9900    0.8750   -3.8050 hc        1 MOL      0.088981
     68 H29         5.2930    2.5720   -3.7860 hc        1 MOL      0.088981
     69 N6          6.6700    2.6890   -0.0760 n         1 MOL     -0.261197
     70 C23         6.8220    3.8530    0.7800 c3        1 MOL     -0.161640
     71 C24         5.5370    4.6650    1.0130 c         1 MOL      0.504194
     72 O13         5.6100    5.6590    1.7440 o         1 MOL     -0.609532
     73 H30         6.6780    1.8280    0.4460 hn        1 MOL      0.217232
     74 H31         7.5710    4.4790    0.2970 h1        1 MOL      0.097720
     75 H32         7.1910    3.5970    1.7680 h1        1 MOL      0.097720
     76 N7          4.3660    4.2300    0.5540 n         1 MOL     -0.100890
     77 C25         3.0320    4.8080    0.9450 c3        1 MOL     -0.114342
     78 C26         2.0720    3.6560    1.3520 c         1 MOL      0.639353
     79 O14         2.3490    2.4760    1.1530 o         1 MOL     -0.602596
     80 C27         2.4090    5.5390   -0.2320 c3        1 MOL     -0.014608
     81 C28         3.1680    6.8370   -0.5620 c3        1 MOL     -0.082135
     82 C29         2.3330    7.6670   -1.4820 c         1 MOL      0.577710
     83 N8          2.0840    7.2620   -2.6920 n         1 MOL     -0.775614
     84 O15         1.8240    8.7110   -1.0470 o         1 MOL     -0.591338
     85 H33         4.4210    3.2710    0.2350 hn        1 MOL      0.085676
     86 H34         3.1760    5.5140    1.7600 h1        1 MOL      0.100444
     87 H35         1.3780    5.8430   -0.0130 hc        1 MOL      0.053039
     88 H36         2.3880    4.8760   -1.0960 hc        1 MOL      0.053039
     89 H37         4.1640    6.6720   -0.9820 hc        1 MOL      0.042476
     90 H38         3.3450    7.4120    0.3420 hc        1 MOL      0.042476
     91 H39         2.4210    6.3850   -3.0540 hn        1 MOL      0.369732
     92 H40         1.5670    7.8760   -3.3050 hn        1 MOL      0.369732
     93 N9          1.0100    3.9390    2.0140 n         1 MOL     -0.701196
     94 C30        -0.0630    2.9870    2.3010 c3        1 MOL      0.569371
     95 C31        -1.1470    3.3970    1.2960 c         1 MOL      0.339048
     96 O16        -1.5380    4.5410    1.0650 o         1 MOL     -0.566550
     97 C32        -0.4510    2.9830    3.8210 c3        1 MOL      0.230212
     98 C33        -0.7520    4.4040    4.3450 c3        1 MOL     -0.266481
     99 C34        -1.6300    2.0630    4.1350 c3        1 MOL     -0.266481
    100 H41         0.7890    4.9210    2.0970 hn        1 MOL      0.296792
    101 H42         0.2750    1.9590    2.1460 h1        1 MOL     -0.127825
    102 H43         0.4220    2.6180    4.3560 hc        1 MOL     -0.036350
    103 H44        -1.6360    4.7600    3.8150 hc        1 MOL      0.045018
    104 H45        -0.8850    4.2850    5.4260 hc        1 MOL      0.045018
    105 H46         0.1050    5.0760    4.2480 hc        1 MOL      0.045018
    106 H47        -1.9950    2.1400    5.1620 hc        1 MOL      0.045018
    107 H48        -2.3630    2.2160    3.3430 hc        1 MOL      0.045018
    108 H49        -1.3270    1.0110    4.1270 hc        1 MOL      0.045018
    109 N10        -1.6480    2.3800    0.5610 n         1 MOL     -0.071228
    110 C35        -2.8650    2.5170   -0.2210 c3        1 MOL      0.221795
    111 C36        -4.1420    2.1010    0.4710 c         1 MOL      0.180147
    112 O17        -4.0640    1.5420    1.5560 o         1 MOL     -0.254064
    113 C37        -2.5900    1.9620   -1.6330 c3        1 MOL     -0.219224
    114 C38        -2.9740    0.4910   -1.8060 c         1 MOL      0.627972
    115 N11        -1.9790   -0.3490   -1.9580 n         1 MOL     -0.685152
    116 O18        -4.1620    0.0930   -1.6260 o         1 MOL     -0.593185
    117 H50        -1.1470    1.5020    0.6120 hn        1 MOL     -0.036368
    118 H51        -3.0760    3.5270   -0.5530 h1        1 MOL      0.033487
    119 H52        -1.5570    2.1100   -1.9270 hc        1 MOL      0.063083
    120 H53        -3.2600    2.5070   -2.2960 hc        1 MOL      0.063083
    121 H54        -1.0250   -0.0060   -2.0100 hn        1 MOL      0.362537
    122 H55        -2.2260   -1.3250   -1.9930 hn        1 MOL      0.362537
    123 N12        -5.3370    2.4300   -0.0300 n         1 MOL     -0.330557
    124 C39        -6.5550    2.2640    0.8420 c3        1 MOL      0.103736
    125 C40        -6.7820    0.6780    1.0610 c         1 MOL      0.429762
    126 O19        -7.2430    0.2110    2.1730 o         1 MOL     -0.595310
    127 C41        -7.8210    2.9170    0.2810 c3        1 MOL     -0.057728
    128 C42        -8.2640    2.3560   -1.0370 ca        1 MOL      0.133136
    129 C43        -9.3380    1.4910   -1.0810 ca        1 MOL     -0.284523
    130 C44        -7.6100    2.7100   -2.2290 ca        1 MOL     -0.284523
    131 C45        -9.7110    0.9380   -2.3240 ca        1 MOL     -0.158482
    132 C46        -7.9930    2.2480   -3.4660 ca        1 MOL     -0.158482
    133 C47        -9.0620    1.2990   -3.5150 ca        1 MOL      0.199830
    134 O20        -9.4560    0.7890   -4.7060 oh        1 MOL     -0.432075
    135 H56        -5.4030    3.0500   -0.8290 hn        1 MOL      0.263622
    136 H57        -6.3520    2.7940    1.7740 h1        1 MOL      0.067706
    137 H58        -7.5530    3.9660    0.2030 hc        1 MOL      0.017496
    138 H59        -8.6060    2.8870    1.0290 hc        1 MOL      0.017496
    139 H60        -9.9260    1.2230   -0.2180 ha        1 MOL      0.150941
    140 H61        -6.7070    3.3090   -2.2330 ha        1 MOL      0.150941
    141 H62       -10.4920    0.1990   -2.2550 ha        1 MOL      0.144492
    142 H63        -7.5410    2.5700   -4.3860 ha        1 MOL      0.144492
    143 H64        -9.9750   -0.0100   -4.6020 ho        1 MOL      0.349733
    144 N13        -6.4140   -0.1950    0.1470 n         1 MOL     -0.281830
    145 C48        -6.4830   -1.7060    0.2280 c3        1 MOL      0.111530
    146 C49        -5.3140   -2.4050    0.9720 c         1 MOL      0.209002
    147 O21        -5.3200   -3.6140    1.3880 o         1 MOL     -0.524234
    148 C50        -6.5000   -2.4630   -1.1310 c3        1 MOL     -0.053081
    149 C51        -7.5710   -1.8870   -2.0730 c3        1 MOL     -0.130641
    150 C52        -7.3770   -2.4750   -3.4940 c         1 MOL      0.776936
    151 O22        -7.5740   -3.6950   -3.5850 o         1 MOL     -0.751065
    152 O23        -7.0340   -1.8670   -4.5010 o         1 MOL     -0.751065
    153 H65        -6.0370    0.1680   -0.7190 hn        1 MOL      0.273640
    154 H66        -7.3960   -1.9600    0.7680 h1        1 MOL      0.107710
    155 H67        -6.8490   -3.4420   -0.8000 hc        1 MOL      0.038983
    156 H68        -5.5090   -2.4430   -1.5890 hc        1 MOL      0.038983
    157 H69        -7.5610   -0.7950   -2.0660 hc        1 MOL     -0.020665
    158 H70        -8.5770   -2.1880   -1.7880 hc        1 MOL     -0.020665
    159 N14        -4.4010   -1.6030    1.4510 n         1 MOL     -0.000282
    160 C53        -3.3570   -1.8360    2.5040 c3        1 MOL     -0.093864
    161 C54        -3.8370   -1.2380    3.8520 c         1 MOL      0.482347
    162 O24        -3.5660   -1.7680    4.9200 o         1 MOL     -0.581804
    163 C55        -2.1160   -1.2510    1.9930 c3        1 MOL      0.007875
    164 C56        -1.4930   -2.0220    0.8640 c3        1 MOL     -0.182707
    165 C57        -0.2430   -1.2740    0.4030 c         1 MOL      0.722799
    166 O25         0.0660   -0.1500    0.8540 o         1 MOL     -0.678193
    167 O26         0.6530   -1.8630   -0.2510 o         1 MOL     -0.678193
    168 H71        -4.3320   -0.6830    1.0470 hn        1 MOL      0.073314
    169 H72        -2.9430   -2.8330    2.6480 h1        1 MOL      0.083355
    170 H73        -1.4380   -1.2130    2.8430 hc        1 MOL      0.061509
    171 H74        -2.2790   -0.2100    1.7020 hc        1 MOL      0.061509
    172 H75        -2.1520   -2.0700   -0.0050 hc        1 MOL      0.069681
    173 H76        -1.1800   -3.0280    1.1360 hc        1 MOL      0.069681
    174 N15        -4.6920   -0.2000    3.8690 n         1 MOL     -0.085732
    175 C58        -5.1750    0.5450    5.0420 c3        1 MOL     -0.139996
    176 H77        -4.4990    1.3730    5.2500 h1        1 MOL      0.064116
    177 H78        -6.1740    0.9330    4.8400 h1        1 MOL      0.064116
    178 H79        -5.2110   -0.1190    5.9050 h1        1 MOL      0.064116
    179 H80        -4.8230    0.2450    2.9710 hn        1 MOL      0.020106
    180 Ca1         2.5000    0.0330    0.1630 Ca        1 MOL      1.715301
    181 O27         2.0940    0.1290    2.9310 oh        1 MOL     -0.828483
    182 H81         2.2760    0.8260    3.5650 ho        1 MOL      0.410105
    183 H82         1.6060   -0.5310    3.4230 ho        1 MOL      0.410105
    184 O28         4.8890    0.5790    1.8530 oh        1 MOL     -0.828483
    185 H83         4.6980    0.8520    2.7570 ho        1 MOL      0.410105
    186 H84         5.8220    0.3980    1.8550 ho        1 MOL      0.410105
    187 O29         0.9490    0.4960   -2.0200 oh        1 MOL     -0.828483
    188 H85         1.1650   -0.2690   -2.5470 ho        1 MOL      0.410105
    189 H86         1.5290    1.1850   -2.3420 ho        1 MOL      0.410105
@<TRIPOS>BOND
     1    1    2 1   
     2    1    4 1   
     3    1    5 1   
     4    1    6 1   
     5    2    3 2   
     6    2    7 1   
     7    7    8 1   
     8    7   15 1   
     9    8    9 1   
    10    8   11 1   
    11    8   16 1   
    12    9   10 2   
    13    9   19 1   
    14   11   12 1   
    15   11   17 1   
    16   11   18 1   
    17   12   13 1   
    18   12   14 1   
    19   19   20 1   
    20   19   27 1   
    21   20   21 1   
    22   20   23 1   
    23   20   28 1   
    24   21   22 2   
    25   21   38 1   
    26   23   24 1   
    27   23   25 1   
    28   23   29 1   
    29   24   26 1   
    30   24   30 1   
    31   24   31 1   
    32   25   32 1   
    33   25   33 1   
    34   25   34 1   
    35   26   35 1   
    36   26   36 1   
    37   26   37 1   
    38   38   39 1   
    39   38   46 1   
    40   39   40 1   
    41   39   42 1   
    42   39   47 1   
    43   40   41 2   
    44   40   50 1   
    45   42   43 1   
    46   42   48 1   
    47   42   49 1   
    48   43   44 1   
    49   43   45 1   
    50   50   51 1   
    51   50   54 1   
    52   51   52 1   
    53   51   55 1   
    54   51   56 1   
    55   52   53 2   
    56   52   57 1   
    57   57   58 1   
    58   57   65 1   
    59   58   59 1   
    60   58   61 1   
    61   58   66 1   
    62   59   60 2   
    63   59   69 1   
    64   61   62 1   
    65   61   67 1   
    66   61   68 1   
    67   62   63 1   
    68   62   64 1   
    69   69   70 1   
    70   69   73 1   
    71   70   71 1   
    72   70   74 1   
    73   70   75 1   
    74   71   72 2   
    75   71   76 1   
    76   76   77 1   
    77   76   85 1   
    78   77   78 1   
    79   77   80 1   
    80   77   86 1   
    81   78   79 2   
    82   78   93 1   
    83   80   81 1   
    84   80   87 1   
    85   80   88 1   
    86   81   82 1   
    87   81   89 1   
    88   81   90 1   
    89   82   83 1   
    90   82   84 2   
    91   83   91 1   
    92   83   92 1   
    93   93   94 1   
    94   93  100 1   
    95   94   95 1   
    96   94   97 1   
    97   94  101 1   
    98   95   96 2   
    99   95  109 1   
   100   97   98 1   
   101   97   99 1   
   102   97  102 1   
   103   98  103 1   
   104   98  104 1   
   105   98  105 1   
   106   99  106 1   
   107   99  107 1   
   108   99  108 1   
   109  109  110 1   
   110  109  117 1   
   111  110  111 1   
   112  110  113 1   
   113  110  118 1   
   114  111  112 2   
   115  111  123 1   
   116  113  114 1   
   117  113  119 1   
   118  113  120 1   
   119  114  115 1   
   120  114  116 2   
   121  115  121 1   
   122  115  122 1   
   123  123  124 1   
   124  123  135 1   
   125  124  125 1   
   126  124  127 1   
   127  124  136 1   
   128  125  126 2   
   129  125  144 1   
   130  127  128 1   
   131  127  137 1   
   132  127  138 1   
   133  128  129 ar  
   134  128  130 ar  
   135  129  131 ar  
   136  129  139 1   
   137  130  132 ar  
   138  130  140 1   
   139  131  133 ar  
   140  131  141 1   
   141  132  133 ar  
   142  132  142 1   
   143  133  134 1   
   144  134  143 1   
   145  144  145 1   
   146  144  153 1   
   147  145  146 1   
   148  145  148 1   
   149  145  154 1   
   150  146  147 2   
   151  146  159 1   
   152  148  149 1   
   153  148  155 1   
   154  148  156 1   
   155  149  150 1   
   156  149  157 1   
   157  149  158 1   
   158  150  151 1   
   159  150  152 1   
   160  159  160 1   
   161  159  168 1   
   162  160  161 1   
   163  160  163 1   
   164  160  169 1   
   165  161  162 2   
   166  161  174 1   
   167  163  164 1   
   168  163  170 1   
   169  163  171 1   
   170  164  165 1   
   171  164  172 1   
   172  164  173 1   
   173  165  166 1   
   174  165  167 1   
   175  174  175 1   
   176  174  179 1   
   177  175  176 1   
   178  175  177 1   
   179  175  178 1   
   180  181  182 1   
   181  181  183 1   
   182  184  185 1   
   183  184  186 1   
   184  187  188 1   
   185  187  189 1   
@<TRIPOS>SUBSTRUCTURE
     1 MOL         1 TEMP              0 ****  ****    0 ROOT
