@<TRIPOS>MOLECULE
MOL
  186   183     1     0     0
SMALL
resp


@<TRIPOS>ATOM
      1 C1          0.0530   -2.7010    5.9370 c3        1 MOL     -0.285282
      2 C2          0.4760   -2.4950    4.4770 c         1 MOL      0.858871
      3 O1         -0.1230   -2.9040    3.4930 o         1 MOL     -0.641277
      4 H1         -0.2720   -1.7500    6.3580 hc        1 MOL      0.061354
      5 H2         -0.7690   -3.4170    5.9800 hc        1 MOL      0.061354
      6 H3          0.8970   -3.0830    6.5110 hc        1 MOL      0.061354
      7 N1          1.6700   -1.9720    4.3030 n         1 MOL     -0.791317
      8 C3          2.2970   -1.8260    2.9160 c3        1 MOL      0.520128
      9 C4          2.6960   -3.1940    2.4340 c         1 MOL      0.413445
     10 O2          3.7230   -3.7810    2.8450 o         1 MOL     -0.577503
     11 C5          3.4720   -0.8440    3.1050 c3        1 MOL     -0.403437
     12 C6          4.2300   -0.6140    1.8150 c         1 MOL      0.897054
     13 O3          5.3270   -0.0380    1.8550 o         1 MOL     -0.692289
     14 O4          3.8180   -0.9890    0.6950 o         1 MOL     -0.692289
     15 H4          2.2350   -1.7170    5.0860 hn        1 MOL      0.353245
     16 H5          1.6660   -1.3680    2.1580 h1        1 MOL     -0.193413
     17 H6          4.0930   -1.2260    3.9180 hc        1 MOL      0.070110
     18 H7          3.0330    0.0590    3.5250 hc        1 MOL      0.070110
     19 N2          1.8460   -3.8030    1.5790 n         1 MOL     -0.031820
     20 C7          1.9400   -5.0970    0.8830 c3        1 MOL     -0.014282
     21 C8          3.0260   -5.0520   -0.1640 c         1 MOL      0.419102
     22 O5          3.9700   -5.8220    0.0320 o         1 MOL     -0.568376
     23 C9          0.5710   -5.4750    0.3410 c3        1 MOL      0.199790
     24 C10        -0.5570   -5.4690    1.3420 c3        1 MOL     -0.162505
     25 C11         0.6250   -6.8230   -0.4820 c3        1 MOL     -0.315901
     26 C12        -0.2900   -6.0250    2.7130 c3        1 MOL     -0.005393
     27 H8          0.9580   -3.3320    1.4160 hn        1 MOL      0.134689
     28 H9          2.1510   -5.8190    1.6740 h1        1 MOL      0.032961
     29 H10         0.2590   -4.7700   -0.4340 hc        1 MOL      0.003189
     30 H11        -1.4630   -5.9370    0.9410 hc        1 MOL      0.055369
     31 H12        -0.9160   -4.4550    1.4760 hc        1 MOL      0.055369
     32 H13        -0.3670   -6.9540   -0.9180 hc        1 MOL      0.068775
     33 H14         1.3100   -6.8480   -1.3380 hc        1 MOL      0.068775
     34 H15         0.8220   -7.6820    0.1600 hc        1 MOL      0.068775
     35 H16         0.3960   -5.3590    3.2430 hc        1 MOL     -0.009715
     36 H17        -1.1850   -6.2180    3.3060 hc        1 MOL     -0.009715
     37 H18         0.2160   -6.9860    2.6480 hc        1 MOL     -0.009715
     38 N3          3.0790   -4.1120   -1.1230 n         1 MOL     -0.235585
     39 C13         4.1020   -4.1690   -2.2200 c3        1 MOL     -0.004523
     40 C14         5.4550   -3.5980   -1.8780 c         1 MOL      0.379205
     41 O6          6.4430   -3.8680   -2.5390 o         1 MOL     -0.540293
     42 C15         3.5880   -3.6550   -3.5840 c3        1 MOL     -0.280943
     43 C16         3.0440   -2.2170   -3.6630 c         1 MOL      0.852032
     44 O7          3.0170   -1.4620   -2.6670 o         1 MOL     -0.731230
     45 O8          2.7540   -1.7480   -4.8080 o         1 MOL     -0.731230
     46 H19         2.3690   -3.3910   -1.1270 hn        1 MOL      0.159306
     47 H20         4.3840   -5.2170   -2.3860 h1        1 MOL      0.084688
     48 H21         2.7710   -4.3030   -3.9120 hc        1 MOL      0.063067
     49 H22         4.4420   -3.7970   -4.2450 hc        1 MOL      0.063067
     50 N4          5.5660   -2.7840   -0.8320 n         1 MOL      0.150822
     51 C17         6.8300   -2.4760   -0.1360 c3        1 MOL     -0.286399
     52 C18         7.6420   -1.2660   -0.6280 c         1 MOL      0.660563
     53 O9          8.7050   -1.3890   -1.2170 o         1 MOL     -0.596023
     54 H23         4.7320   -2.4270   -0.4050 hn        1 MOL      0.018545
     55 H24         7.4490   -3.3600   -0.2890 h1        1 MOL      0.080292
     56 H25         6.5560   -2.2140    0.8900 h1        1 MOL      0.080292
     57 N5          7.0850   -0.0550   -0.5560 n         1 MOL     -0.432190
     58 C19         7.5680    1.1330   -1.3000 c3        1 MOL      0.030654
     59 C20         7.4490    2.4050   -0.4040 c         1 MOL      0.508725
     60 O10         7.9500    3.4410   -0.8110 o         1 MOL     -0.584276
     61 C21         6.7250    1.2900   -2.5660 c3        1 MOL     -0.088662
     62 C22         5.2110    1.4020   -2.4550 c         1 MOL      0.744475
     63 O11         4.5630    1.5960   -3.5100 o         1 MOL     -0.726695
     64 O12         4.6680    1.3680   -1.3250 o         1 MOL     -0.726695
     65 H26         6.1230    0.0320   -0.2620 hn        1 MOL      0.067558
     66 H27         8.6360    1.1630   -1.4940 h1        1 MOL      0.057317
     67 H28         6.8360    0.4290   -3.2350 hc        1 MOL      0.039406
     68 H29         7.0800    2.1740   -3.1000 hc        1 MOL      0.039406
     69 N6          6.8280    2.2290    0.7240 n         1 MOL     -0.206375
     70 C23         6.8920    3.1560    1.8080 c3        1 MOL      0.063445
     71 C24         5.6320    3.9260    2.0090 c         1 MOL      0.540522
     72 O13         5.6470    4.9880    2.6150 o         1 MOL     -0.647780
     73 H30         6.3810    1.3490    0.9250 hn        1 MOL      0.235292
     74 H31         7.6230    3.9260    1.5750 h1        1 MOL      0.008716
     75 H32         7.2590    2.6450    2.7000 h1        1 MOL      0.008716
     76 N7          4.5860    3.5380    1.3880 n         1 MOL     -0.249680
     77 C25         3.2930    4.2330    1.3750 c3        1 MOL      0.040855
     78 C26         2.2300    3.0880    1.4340 c         1 MOL      0.479377
     79 O14         2.4780    1.9370    1.0870 o         1 MOL     -0.602529
     80 C27         3.2350    5.1450    0.0780 c3        1 MOL     -0.194501
     81 C28         4.0000    6.4810    0.3340 c3        1 MOL     -0.229939
     82 C29         3.9600    7.3230   -0.9040 c         1 MOL      0.771029
     83 N8          4.1990    8.6230   -0.8000 n         1 MOL     -0.875563
     84 O15         3.7720    6.8270   -1.9960 o         1 MOL     -0.569419
     85 H33         4.5670    2.7400    0.7750 hn        1 MOL      0.190302
     86 H34         3.1250    4.8670    2.2410 h1        1 MOL      0.055131
     87 H35         2.1970    5.3420   -0.1930 hc        1 MOL      0.092956
     88 H36         3.8340    4.7190   -0.7270 hc        1 MOL      0.092956
     89 H37         4.9930    6.2750    0.7200 hc        1 MOL      0.079499
     90 H38         3.4690    6.9400    1.1760 hc        1 MOL      0.079499
     91 H39         4.5300    8.9890    0.0770 hn        1 MOL      0.362737
     92 H40         4.1140    9.2510   -1.5970 hn        1 MOL      0.362737
     93 N9          1.0880    3.4420    1.9660 n         1 MOL     -0.357897
     94 C30        -0.1160    2.5600    2.0120 c3        1 MOL      0.099191
     95 C31        -1.2260    3.0690    1.1130 c         1 MOL      0.406500
     96 O16        -1.6110    4.1850    1.3230 o         1 MOL     -0.598222
     97 C32        -0.3970    2.3560    3.4910 c3        1 MOL      0.228100
     98 C33        -1.6710    1.4180    3.6040 c3        1 MOL     -0.314157
     99 C34         0.5770    1.5110    4.1930 c3        1 MOL     -0.314157
    100 H41         1.0080    4.3250    2.4470 hn        1 MOL      0.234941
    101 H42         0.1120    1.5640    1.6330 h1        1 MOL      0.120402
    102 H43        -0.6070    3.2810    4.0220 hc        1 MOL     -0.019457
    103 H44        -1.9970    1.4350    4.6450 hc        1 MOL      0.063367
    104 H45        -2.4940    1.7770    2.9950 hc        1 MOL      0.063367
    105 H46        -1.5000    0.3750    3.3250 hc        1 MOL      0.063367
    106 H47         0.2810    1.2970    5.2110 hc        1 MOL      0.063367
    107 H48         0.8690    0.5700    3.7330 hc        1 MOL      0.063367
    108 H49         1.5060    2.0810    4.2560 hc        1 MOL      0.063367
    109 N10        -1.7090    2.3060    0.1750 n         1 MOL     -0.154985
    110 C35        -2.9030    2.6070   -0.6480 c3        1 MOL      0.293020
    111 C36        -4.1770    2.1340    0.0140 c         1 MOL      0.309933
    112 O17        -4.1390    1.3100    0.9230 o         1 MOL     -0.239093
    113 C37        -2.6360    2.0980   -2.0370 c3        1 MOL     -0.331988
    114 C38        -3.6380    2.4550   -3.1160 c         1 MOL      0.685972
    115 N11        -3.4130    3.5210   -3.8350 n         1 MOL     -0.790242
    116 O18        -4.7320    1.9440   -3.1530 o         1 MOL     -0.564425
    117 H50        -1.3050    1.3850    0.1230 hn        1 MOL      0.037672
    118 H51        -2.9680    3.6940   -0.7410 h1        1 MOL     -0.006841
    119 H52        -2.5740    1.0100   -1.9730 hc        1 MOL      0.106703
    120 H53        -1.6750    2.5200   -2.3380 hc        1 MOL      0.106703
    121 H54        -2.5490    4.0370   -3.8320 hn        1 MOL      0.363511
    122 H55        -3.9860    3.6450   -4.6620 hn        1 MOL      0.363511
    123 N12        -5.2720    2.6050   -0.5380 n         1 MOL     -0.595114
    124 C39        -6.5850    2.1160   -0.1540 c3        1 MOL      0.281775
    125 C40        -6.7290    0.5740   -0.2860 c         1 MOL      0.605947
    126 O19        -7.0570   -0.0900    0.7130 o         1 MOL     -0.541247
    127 C41        -7.6060    2.8960   -0.9550 c3        1 MOL     -0.058883
    128 C42        -8.9720    2.6480   -0.4760 ca        1 MOL      0.091454
    129 C43        -9.3150    2.9520    0.8440 ca        1 MOL     -0.270823
    130 C44        -9.8550    1.9750   -1.2800 ca        1 MOL     -0.270823
    131 C45       -10.5500    2.4880    1.3310 ca        1 MOL     -0.155587
    132 C46       -11.1110    1.5300   -0.8550 ca        1 MOL     -0.155587
    133 C47       -11.4890    1.8210    0.4590 ca        1 MOL      0.256223
    134 O20       -12.7680    1.4230    0.8990 oh        1 MOL     -0.500792
    135 H56        -5.2890    3.2090   -1.3410 hn        1 MOL      0.318099
    136 H57        -6.6820    2.3000    0.9110 h1        1 MOL      0.027497
    137 H58        -7.5350    2.7010   -2.0300 hc        1 MOL      0.025059
    138 H59        -7.3580    3.9550   -0.8720 hc        1 MOL      0.025059
    139 H60        -8.6280    3.4220    1.5180 ha        1 MOL      0.157647
    140 H61        -9.4790    1.7140   -2.2580 ha        1 MOL      0.157647
    141 H62       -10.7700    2.7170    2.3640 ha        1 MOL      0.130328
    142 H63       -11.8730    1.0100   -1.4210 ha        1 MOL      0.130328
    143 H64       -13.2810    1.1690    0.1300 ho        1 MOL      0.349947
    144 N13        -6.3310    0.0180   -1.3970 n         1 MOL     -0.530584
    145 C48        -6.2580   -1.4510   -1.6120 c3        1 MOL      0.100075
    146 C49        -5.6990   -2.2140   -0.4090 c         1 MOL      0.221915
    147 O21        -6.2260   -3.2760    0.0510 o         1 MOL     -0.487751
    148 C50        -5.4970   -1.6920   -2.9500 c3        1 MOL     -0.001985
    149 C51        -5.5060   -3.1930   -3.3980 c3        1 MOL     -0.370288
    150 C52        -4.5150   -3.2550   -4.5420 c         1 MOL      0.731164
    151 O22        -4.9260   -2.7420   -5.6410 o         1 MOL     -0.735949
    152 O23        -3.3280   -3.6120   -4.3920 o         1 MOL     -0.735949
    153 H65        -6.0750    0.5810   -2.1840 hn        1 MOL      0.289661
    154 H66        -7.2830   -1.7910   -1.7690 h1        1 MOL      0.066056
    155 H67        -4.4650   -1.3580   -2.8030 hc        1 MOL      0.045825
    156 H68        -5.9480   -1.0680   -3.7170 hc        1 MOL      0.045825
    157 H69        -6.4430   -3.5800   -3.7890 hc        1 MOL      0.072174
    158 H70        -5.1500   -3.7980   -2.5640 hc        1 MOL      0.072174
    159 N14        -4.5550   -1.7280    0.0280 n         1 MOL     -0.041300
    160 C53        -3.8230   -2.2100    1.1550 c3        1 MOL      0.084341
    161 C54        -4.4340   -2.0450    2.5220 c         1 MOL      0.362528
    162 O24        -4.5150   -3.0160    3.2930 o         1 MOL     -0.556803
    163 C55        -2.4300   -1.5260    1.1280 c3        1 MOL     -0.235016
    164 C56        -1.6310   -1.8630   -0.1440 c3        1 MOL     -0.086215
    165 C57        -0.2580   -1.2980   -0.0920 c         1 MOL      1.053517
    166 O25         0.6990   -2.0300   -0.4210 o         1 MOL     -0.756892
    167 O26        -0.0210   -0.0440    0.2030 o         1 MOL     -0.756892
    168 H71        -4.2450   -0.8120   -0.2840 hn        1 MOL      0.156241
    169 H72        -3.6620   -3.2870    1.1480 h1        1 MOL      0.082326
    170 H73        -1.9040   -1.9390    1.9870 hc        1 MOL      0.061448
    171 H74        -2.4660   -0.4440    1.2320 hc        1 MOL      0.061448
    172 H75        -2.1320   -1.5250   -1.0500 hc        1 MOL      0.019457
    173 H76        -1.5760   -2.9490   -0.2810 hc        1 MOL      0.019457
    174 N15        -5.0770   -0.9140    2.7110 n         1 MOL      0.147222
    175 C58        -5.8520   -0.5370    3.8830 c3        1 MOL     -0.355562
    176 H77        -5.7580    0.5360    4.0500 h1        1 MOL      0.106147
    177 H78        -6.9000   -0.7880    3.7230 h1        1 MOL      0.106147
    178 H79        -5.4780   -1.0740    4.7550 h1        1 MOL      0.106147
    179 H80        -4.9090   -0.1960    2.0320 hn        1 MOL     -0.078679
    180 Ca1         2.2880    0.1420   -0.9770 Ca        1 MOL      1.718565
    181 O27         2.0410    2.5030   -2.0500 oh        1 MOL     -0.912495
    182 H81         2.8710    2.3110   -2.4950 ho        1 MOL      0.424923
    183 H82         1.8420    3.4060   -2.2800 ho        1 MOL      0.424923
    184 O28         0.2020   -0.0860   -2.7810 oh        1 MOL     -0.912495
    185 H83         0.2420    0.6880   -3.3330 ho        1 MOL      0.424923
    186 H84        -0.4050   -0.6760   -3.2350 ho        1 MOL      0.424923
@<TRIPOS>BOND
     1    1    2 1   
     2    1    4 1   
     3    1    5 1   
     4    1    6 1   
     5    2    3 2   
     6    2    7 1   
     7    7    8 1   
     8    7   15 1   
     9    8    9 1   
    10    8   11 1   
    11    8   16 1   
    12    9   10 2   
    13    9   19 1   
    14   11   12 1   
    15   11   17 1   
    16   11   18 1   
    17   12   13 1   
    18   12   14 1   
    19   19   20 1   
    20   19   27 1   
    21   20   21 1   
    22   20   23 1   
    23   20   28 1   
    24   21   22 2   
    25   21   38 1   
    26   23   24 1   
    27   23   25 1   
    28   23   29 1   
    29   24   26 1   
    30   24   30 1   
    31   24   31 1   
    32   25   32 1   
    33   25   33 1   
    34   25   34 1   
    35   26   35 1   
    36   26   36 1   
    37   26   37 1   
    38   38   39 1   
    39   38   46 1   
    40   39   40 1   
    41   39   42 1   
    42   39   47 1   
    43   40   41 2   
    44   40   50 1   
    45   42   43 1   
    46   42   48 1   
    47   42   49 1   
    48   43   44 1   
    49   43   45 1   
    50   50   51 1   
    51   50   54 1   
    52   51   52 1   
    53   51   55 1   
    54   51   56 1   
    55   52   53 2   
    56   52   57 1   
    57   57   58 1   
    58   57   65 1   
    59   58   59 1   
    60   58   61 1   
    61   58   66 1   
    62   59   60 2   
    63   59   69 1   
    64   61   62 1   
    65   61   67 1   
    66   61   68 1   
    67   62   63 1   
    68   62   64 1   
    69   69   70 1   
    70   69   73 1   
    71   70   71 1   
    72   70   74 1   
    73   70   75 1   
    74   71   72 2   
    75   71   76 1   
    76   76   77 1   
    77   76   85 1   
    78   77   78 1   
    79   77   80 1   
    80   77   86 1   
    81   78   79 2   
    82   78   93 1   
    83   80   81 1   
    84   80   87 1   
    85   80   88 1   
    86   81   82 1   
    87   81   89 1   
    88   81   90 1   
    89   82   83 1   
    90   82   84 2   
    91   83   91 1   
    92   83   92 1   
    93   93   94 1   
    94   93  100 1   
    95   94   95 1   
    96   94   97 1   
    97   94  101 1   
    98   95   96 2   
    99   95  109 1   
   100   97   98 1   
   101   97   99 1   
   102   97  102 1   
   103   98  103 1   
   104   98  104 1   
   105   98  105 1   
   106   99  106 1   
   107   99  107 1   
   108   99  108 1   
   109  109  110 1   
   110  109  117 1   
   111  110  111 1   
   112  110  113 1   
   113  110  118 1   
   114  111  112 2   
   115  111  123 1   
   116  113  114 1   
   117  113  119 1   
   118  113  120 1   
   119  114  115 1   
   120  114  116 2   
   121  115  121 1   
   122  115  122 1   
   123  123  124 1   
   124  123  135 1   
   125  124  125 1   
   126  124  127 1   
   127  124  136 1   
   128  125  126 2   
   129  125  144 1   
   130  127  128 1   
   131  127  137 1   
   132  127  138 1   
   133  128  129 ar  
   134  128  130 ar  
   135  129  131 ar  
   136  129  139 1   
   137  130  132 ar  
   138  130  140 1   
   139  131  133 ar  
   140  131  141 1   
   141  132  133 ar  
   142  132  142 1   
   143  133  134 1   
   144  134  143 1   
   145  144  145 1   
   146  144  153 1   
   147  145  146 1   
   148  145  148 1   
   149  145  154 1   
   150  146  147 2   
   151  146  159 1   
   152  148  149 1   
   153  148  155 1   
   154  148  156 1   
   155  149  150 1   
   156  149  157 1   
   157  149  158 1   
   158  150  151 1   
   159  150  152 1   
   160  159  160 1   
   161  159  168 1   
   162  160  161 1   
   163  160  163 1   
   164  160  169 1   
   165  161  162 2   
   166  161  174 1   
   167  163  164 1   
   168  163  170 1   
   169  163  171 1   
   170  164  165 1   
   171  164  172 1   
   172  164  173 1   
   173  165  166 1   
   174  165  167 1   
   175  174  175 1   
   176  174  179 1   
   177  175  176 1   
   178  175  177 1   
   179  175  178 1   
   180  181  182 1   
   181  181  183 1   
   182  184  185 1   
   183  184  186 1   
@<TRIPOS>SUBSTRUCTURE
     1 MOL         1 TEMP              0 ****  ****    0 ROOT
