@<TRIPOS>MOLECULE
MOL
  186   183     1     0     0
SMALL
resp


@<TRIPOS>ATOM
      1 C1         -0.3550    3.6080    4.9460 c3        1 MOL     -0.307688
      2 C2         -0.7880    3.2720    3.5160 c         1 MOL      0.818955
      3 O1          0.0120    3.4280    2.5790 o         1 MOL     -0.667053
      4 H1         -1.1710    4.1130    5.4620 hc        1 MOL      0.074555
      5 H2         -0.1050    2.6880    5.4750 hc        1 MOL      0.074555
      6 H3          0.5160    4.2610    4.9180 hc        1 MOL      0.074555
      7 N1         -2.0400    2.7400    3.3130 n         1 MOL     -0.767212
      8 C3         -2.4530    2.1370    2.0310 c3        1 MOL      0.371303
      9 C4         -2.9560    3.2780    1.0590 c         1 MOL      0.323633
     10 O2         -3.9080    3.9520    1.4240 o         1 MOL     -0.529228
     11 C5         -3.5600    1.0640    2.2630 c3        1 MOL     -0.285512
     12 C6         -4.2080    0.4380    1.0180 c         1 MOL      0.763270
     13 O3         -3.6330    0.6600   -0.0390 o         1 MOL     -0.647741
     14 O4         -5.1550   -0.3640    1.1540 o         1 MOL     -0.647741
     15 H4         -2.6390    2.7060    4.1290 hn        1 MOL      0.357781
     16 H5         -1.6420    1.6520    1.5000 h1        1 MOL      0.045206
     17 H6         -4.4030    1.2920    2.8990 hc        1 MOL      0.049104
     18 H7         -3.0010    0.2390    2.6900 hc        1 MOL      0.049104
     19 N2         -2.2270    3.5530   -0.0450 n         1 MOL     -0.132077
     20 C7         -2.5290    4.6340   -0.9710 c3        1 MOL      0.045685
     21 C8         -3.2900    4.3370   -2.2430 c         1 MOL      0.451406
     22 O5         -3.4730    5.2760   -3.0670 o         1 MOL     -0.572212
     23 C9         -1.2760    5.3610   -1.3850 c3        1 MOL      0.056747
     24 C10        -0.5840    6.0740   -0.2240 c3        1 MOL      0.051076
     25 C11        -1.3220    7.2160    0.4790 c3        1 MOL     -0.282738
     26 C12        -0.5700    7.5320    1.7970 c3        1 MOL      0.222078
     27 N3         -1.0120    8.8200    2.3590 n4        1 MOL     -0.413088
     28 H8         -1.4760    2.9400   -0.3520 hn        1 MOL      0.192844
     29 H9         -3.2140    5.3100   -0.4540 h1        1 MOL      0.034120
     30 H10        -1.3810    6.1310   -2.1520 hc        1 MOL     -0.005195
     31 H11        -0.5390    4.6350   -1.7190 hc        1 MOL     -0.005195
     32 H12         0.3520    6.5300   -0.5290 hc        1 MOL      0.023974
     33 H13        -0.2470    5.2890    0.4570 hc        1 MOL      0.023974
     34 H14        -2.3550    6.9580    0.7070 hc        1 MOL      0.089074
     35 H15        -1.3150    8.1210   -0.1170 hc        1 MOL      0.089074
     36 H16         0.5160    7.5680    1.6580 hx        1 MOL      0.045430
     37 H17        -0.6890    6.7290    2.5130 hx        1 MOL      0.045430
     38 H18        -0.6310    8.9070    3.2940 hn        1 MOL      0.328704
     39 H19        -0.7560    9.6350    1.8300 hn        1 MOL      0.328704
     40 H20        -2.0160    8.9090    2.4530 hn        1 MOL      0.328704
     41 N4         -3.5810    3.0530   -2.4270 n         1 MOL     -0.253308
     42 C13        -4.5160    2.5900   -3.4690 c3        1 MOL     -0.001696
     43 C14        -5.7720    1.8720   -2.8860 c         1 MOL      0.423517
     44 O6         -6.7080    1.6610   -3.6130 o         1 MOL     -0.519287
     45 C15        -3.7700    1.5900   -4.3610 c3        1 MOL     -0.204948
     46 C16        -3.0650    0.4830   -3.5500 c         1 MOL      0.908590
     47 O7         -1.8670    0.2260   -3.5330 o         1 MOL     -0.822113
     48 O8         -3.7910   -0.2810   -2.8540 o         1 MOL     -0.822113
     49 H21        -3.2170    2.5310   -1.6320 hn        1 MOL      0.073967
     50 H22        -4.8580    3.4250   -4.0650 h1        1 MOL      0.122428
     51 H23        -3.0310    1.9880   -5.0490 hc        1 MOL      0.055017
     52 H24        -4.4250    1.0530   -5.0420 hc        1 MOL      0.055017
     53 N5         -5.8690    1.6160   -1.5620 n         1 MOL     -0.229540
     54 C17        -7.0590    1.0660   -0.9820 c3        1 MOL     -0.274412
     55 C18        -7.3020   -0.4790   -1.1010 c         1 MOL      0.601476
     56 O9         -8.3530   -1.0010   -0.6820 o         1 MOL     -0.594381
     57 H25        -5.1030    1.8450   -0.9480 hn        1 MOL      0.226578
     58 H26        -7.9140    1.5880   -1.4070 h1        1 MOL      0.120213
     59 H27        -7.0660    1.2870    0.0850 h1        1 MOL      0.120213
     60 N6         -6.4400   -1.2130   -1.8540 n         1 MOL     -0.390612
     61 C19        -6.6030   -2.6950   -1.9830 c3        1 MOL      0.022117
     62 C20        -6.6210   -3.4930   -0.6360 c         1 MOL      0.402947
     63 O10        -7.0690   -4.6520   -0.5400 o         1 MOL     -0.558508
     64 C21        -5.5680   -3.1960   -2.9360 c3        1 MOL     -0.201805
     65 C22        -4.0570   -3.0880   -2.4800 c         1 MOL      0.741152
     66 O11        -3.1510   -3.3120   -3.3120 o         1 MOL     -0.688824
     67 O12        -3.7700   -2.7400   -1.3090 o         1 MOL     -0.688824
     68 H28        -5.5770   -0.7640   -2.1230 hn        1 MOL      0.311810
     69 H29        -7.5700   -2.8750   -2.4380 h1        1 MOL      0.103949
     70 H30        -5.6370   -2.6940   -3.9020 hc        1 MOL      0.068313
     71 H31        -5.7850   -4.2380   -3.1890 hc        1 MOL      0.068313
     72 N7         -6.2750   -2.8070    0.4880 n         1 MOL     -0.014596
     73 C23        -6.3300   -3.4860    1.8090 c3        1 MOL     -0.267629
     74 C24        -4.9640   -3.7020    2.4270 c         1 MOL      0.558307
     75 O13        -4.8930   -4.4880    3.3990 o         1 MOL     -0.574828
     76 H32        -6.0450   -1.8270    0.4290 hn        1 MOL      0.162447
     77 H33        -6.7670   -4.4770    1.6770 h1        1 MOL      0.121329
     78 H34        -6.9200   -2.8530    2.4730 h1        1 MOL      0.121329
     79 N8         -3.9110   -3.2000    1.7520 n         1 MOL     -0.182394
     80 C25        -2.5400   -3.6570    1.9900 c3        1 MOL     -0.212501
     81 C26        -1.5160   -2.5630    2.1740 c         1 MOL      0.700710
     82 O14        -1.6100   -1.5850    1.4120 o         1 MOL     -0.640474
     83 C27        -1.9300   -4.5820    0.9180 c3        1 MOL      0.484677
     84 C28        -2.7820   -5.8200    0.7720 c3        1 MOL     -0.427845
     85 O15        -1.7280   -3.9980   -0.3970 oh        1 MOL     -0.677280
     86 H35        -4.0690   -2.5730    0.9750 hn        1 MOL      0.031546
     87 H36        -2.5620   -4.1860    2.9440 h1        1 MOL      0.056443
     88 H37        -0.9860   -4.9360    1.3290 h1        1 MOL     -0.000904
     89 H38        -2.6040   -3.6950   -0.6800 ho        1 MOL      0.411275
     90 H39        -3.7730   -5.5650    0.3830 hc        1 MOL      0.109043
     91 H40        -2.2960   -6.4880    0.0530 hc        1 MOL      0.109043
     92 H41        -2.6750   -6.4440    1.6610 hc        1 MOL      0.109043
     93 N9         -0.4820   -2.8360    2.9830 n         1 MOL     -0.541541
     94 C29         0.7680   -2.1390    2.9480 c3        1 MOL     -0.093324
     95 C30         1.9460   -2.8350    2.1530 c         1 MOL      0.488985
     96 O16         2.3170   -3.9990    2.5150 o         1 MOL     -0.556478
     97 C31         1.2730   -1.7290    4.3720 c3        1 MOL      0.040439
     98 C32         0.1380   -1.2560    5.3250 c3        1 MOL      0.270675
     99 C33         2.4260   -0.6980    4.2960 c3        1 MOL     -0.391828
    100 C34         0.5330   -1.0640    6.7450 c3        1 MOL     -0.167206
    101 H42        -0.4880   -3.6220    3.6130 hn        1 MOL      0.324691
    102 H43         0.5970   -1.2490    2.3510 h1        1 MOL      0.104418
    103 H44         1.6130   -2.6270    4.8770 hc        1 MOL      0.029155
    104 H45        -0.7650   -1.8650    5.2910 hc        1 MOL     -0.038444
    105 H46        -0.3170   -0.2810    5.1060 hc        1 MOL     -0.038444
    106 H47         2.8440   -0.4350    5.2680 hc        1 MOL      0.088230
    107 H48         3.2050   -1.0790    3.6310 hc        1 MOL      0.088230
    108 H49         1.9650    0.2250    3.9330 hc        1 MOL      0.088230
    109 H50         0.9340   -2.0370    7.0300 hc        1 MOL      0.026669
    110 H51         1.2950   -0.2830    6.8330 hc        1 MOL      0.026669
    111 H52        -0.3330   -0.8760    7.3800 hc        1 MOL      0.026669
    112 N10         2.5190   -2.1380    1.1630 n         1 MOL     -0.138798
    113 C35         3.6510   -2.6240    0.3690 c3        1 MOL     -0.083420
    114 C36         4.9040   -1.9780    0.8190 c         1 MOL      0.415039
    115 O17         4.8340   -0.8690    1.3790 o         1 MOL     -0.304463
    116 C37         3.4610   -2.3140   -0.9900 c3        1 MOL      0.126999
    117 C38         2.2090   -3.0010   -1.5780 c3        1 MOL     -0.206171
    118 O18         3.1600   -0.9250   -1.2720 oh        1 MOL     -0.522301
    119 H53         1.9430   -1.4080    0.7690 hn        1 MOL      0.348050
    120 H54         3.7480   -3.6970    0.5110 h1        1 MOL      0.078307
    121 H55         4.3640   -2.5430   -1.5520 h1        1 MOL      0.033739
    122 H56         2.2470   -0.7590   -1.0110 ho        1 MOL      0.388094
    123 H57         2.2720   -4.0820   -1.4670 hc        1 MOL      0.060116
    124 H58         1.3220   -2.5980   -1.0950 hc        1 MOL      0.060116
    125 H59         2.2590   -2.8740   -2.6520 hc        1 MOL      0.060116
    126 N11         6.0650   -2.5810    0.5390 n         1 MOL     -0.457123
    127 C39         7.4200   -1.9280    0.7330 c3        1 MOL      0.046692
    128 C40         7.4560   -0.5610    0.1550 c         1 MOL      0.175491
    129 O19         7.9540    0.3530    0.8600 o         1 MOL     -0.459265
    130 C41         8.5420   -2.8190    0.0750 c3        1 MOL      0.185378
    131 C42         8.6630   -4.1790    0.7500 c3        1 MOL     -0.330191
    132 O20         8.0970   -3.0600   -1.2380 oh        1 MOL     -0.640687
    133 H60         6.0590   -3.4500    0.0300 hn        1 MOL      0.315395
    134 H61         7.6640   -1.9080    1.7930 h1        1 MOL      0.133251
    135 H62         9.4420   -2.2190    0.1490 h1        1 MOL      0.063962
    136 H63         8.7780   -3.4060   -1.8120 ho        1 MOL      0.419166
    137 H64         7.6710   -4.6130    0.9330 hc        1 MOL      0.106235
    138 H65         9.1620   -4.8370    0.0490 hc        1 MOL      0.106235
    139 H66         9.1680   -4.1780    1.7190 hc        1 MOL      0.106235
    140 N12         6.7740   -0.3440   -0.9760 n         1 MOL      0.010554
    141 C43         6.6930    0.9460   -1.7240 c3        1 MOL      0.126421
    142 C44         5.8480    1.9170   -0.9590 c         1 MOL      0.155299
    143 O21         6.2750    3.0730   -0.7280 o         1 MOL     -0.499379
    144 C45         6.0930    0.7520   -3.1540 c3        1 MOL     -0.238192
    145 C46         7.0420    0.3700   -4.2760 c3        1 MOL      0.169582
    146 C47         8.0200   -0.7930   -3.9760 c3        1 MOL      0.008907
    147 C48         8.9880   -1.0570   -5.1200 c3        1 MOL     -0.144921
    148 N13         9.8430    0.1240   -5.2650 n4        1 MOL     -0.301918
    149 H67         6.4990   -1.1740   -1.4750 hn        1 MOL      0.201600
    150 H68         7.6920    1.3240   -1.9320 h1        1 MOL      0.002438
    151 H69         5.6420    1.6930   -3.4570 hc        1 MOL      0.092479
    152 H70         5.2980    0.0190   -3.0390 hc        1 MOL      0.092479
    153 H71         7.7150    1.1830   -4.5610 hc        1 MOL     -0.022816
    154 H72         6.4400    0.0900   -5.1420 hc        1 MOL     -0.022816
    155 H73         7.4910   -1.7120   -3.7470 hc        1 MOL      0.032670
    156 H74         8.5950   -0.6380   -3.0600 hc        1 MOL      0.032670
    157 H75         8.4350   -1.1940   -6.0450 hx        1 MOL      0.133728
    158 H76         9.5560   -1.9490   -4.8620 hx        1 MOL      0.133728
    159 H77        10.3270    0.2170   -6.1450 hn        1 MOL      0.315910
    160 H78         9.2740    0.9600   -5.1860 hn        1 MOL      0.315910
    161 H79        10.6180    0.1360   -4.6260 hn        1 MOL      0.315910
    162 N14         4.7850    1.4530   -0.3310 n         1 MOL      0.391261
    163 C49         3.8580    2.4590    0.3040 c3        1 MOL     -0.310566
    164 C50         4.4280    2.8240    1.7000 c         1 MOL      0.445862
    165 O22         4.3540    3.9620    2.1140 o         1 MOL     -0.547161
    166 C51         2.5040    1.8170    0.5450 c3        1 MOL      0.358404
    167 C52         1.7420    1.7250   -0.7550 c3        1 MOL     -0.302694
    168 C53         0.4870    0.7810   -0.5970 c         1 MOL      0.723737
    169 O23         0.6470   -0.4100   -0.3690 o         1 MOL     -0.717769
    170 O24        -0.7000    1.1790   -0.6390 o         1 MOL     -0.717769
    171 H80         4.5110    0.4880   -0.4470 hn        1 MOL     -0.254106
    172 H81         3.6180    3.3180   -0.3250 h1        1 MOL      0.125558
    173 H82         1.9430    2.4720    1.2220 hc        1 MOL     -0.060931
    174 H83         2.6590    0.8590    1.0410 hc        1 MOL     -0.060931
    175 H84         2.4300    1.4000   -1.5280 hc        1 MOL      0.056954
    176 H85         1.4340    2.7370   -1.0350 hc        1 MOL      0.056954
    177 N15         5.0390    1.8680    2.3820 n         1 MOL     -0.034810
    178 C54         5.7260    2.0210    3.6540 c3        1 MOL     -0.350585
    179 H86         5.0290    2.4050    4.3990 h1        1 MOL      0.123487
    180 H87         6.1080    1.0540    3.9800 h1        1 MOL      0.123487
    181 H88         6.5540    2.7200    3.5380 h1        1 MOL      0.123487
    182 H89         5.0520    0.9320    1.9840 hn        1 MOL      0.092874
    183 Ca1        -2.0450   -0.9570   -1.1270 Ca        1 MOL      1.755707
    184 O25        -0.7500   -2.6060   -2.6200 oh        1 MOL     -0.880483
    185 H90        -0.2760   -2.4150   -3.4320 ho        1 MOL      0.419721
    186 H91        -1.5750   -2.9760   -2.9090 ho        1 MOL      0.419721
@<TRIPOS>BOND
     1    1    2 1   
     2    1    4 1   
     3    1    5 1   
     4    1    6 1   
     5    2    3 2   
     6    2    7 1   
     7    7    8 1   
     8    7   15 1   
     9    8    9 1   
    10    8   11 1   
    11    8   16 1   
    12    9   10 2   
    13    9   19 1   
    14   11   12 1   
    15   11   17 1   
    16   11   18 1   
    17   12   13 1   
    18   12   14 1   
    19   19   20 1   
    20   19   28 1   
    21   20   21 1   
    22   20   23 1   
    23   20   29 1   
    24   21   22 2   
    25   21   41 1   
    26   23   24 1   
    27   23   30 1   
    28   23   31 1   
    29   24   25 1   
    30   24   32 1   
    31   24   33 1   
    32   25   26 1   
    33   25   34 1   
    34   25   35 1   
    35   26   27 1   
    36   26   36 1   
    37   26   37 1   
    38   27   38 1   
    39   27   39 1   
    40   27   40 1   
    41   41   42 1   
    42   41   49 1   
    43   42   43 1   
    44   42   45 1   
    45   42   50 1   
    46   43   44 2   
    47   43   53 1   
    48   45   46 1   
    49   45   51 1   
    50   45   52 1   
    51   46   47 1   
    52   46   48 1   
    53   53   54 1   
    54   53   57 1   
    55   54   55 1   
    56   54   58 1   
    57   54   59 1   
    58   55   56 2   
    59   55   60 1   
    60   60   61 1   
    61   60   68 1   
    62   61   62 1   
    63   61   64 1   
    64   61   69 1   
    65   62   63 2   
    66   62   72 1   
    67   64   65 1   
    68   64   70 1   
    69   64   71 1   
    70   65   66 1   
    71   65   67 1   
    72   72   73 1   
    73   72   76 1   
    74   73   74 1   
    75   73   77 1   
    76   73   78 1   
    77   74   75 2   
    78   74   79 1   
    79   79   80 1   
    80   79   86 1   
    81   80   81 1   
    82   80   83 1   
    83   80   87 1   
    84   81   82 2   
    85   81   93 1   
    86   83   84 1   
    87   83   85 1   
    88   83   88 1   
    89   84   90 1   
    90   84   91 1   
    91   84   92 1   
    92   85   89 1   
    93   93   94 1   
    94   93  101 1   
    95   94   95 1   
    96   94   97 1   
    97   94  102 1   
    98   95   96 2   
    99   95  112 1   
   100   97   98 1   
   101   97   99 1   
   102   97  103 1   
   103   98  100 1   
   104   98  104 1   
   105   98  105 1   
   106   99  106 1   
   107   99  107 1   
   108   99  108 1   
   109  100  109 1   
   110  100  110 1   
   111  100  111 1   
   112  112  113 1   
   113  112  119 1   
   114  113  114 1   
   115  113  116 1   
   116  113  120 1   
   117  114  115 2   
   118  114  126 1   
   119  116  117 1   
   120  116  118 1   
   121  116  121 1   
   122  117  123 1   
   123  117  124 1   
   124  117  125 1   
   125  118  122 1   
   126  126  127 1   
   127  126  133 1   
   128  127  128 1   
   129  127  130 1   
   130  127  134 1   
   131  128  129 2   
   132  128  140 1   
   133  130  131 1   
   134  130  132 1   
   135  130  135 1   
   136  131  137 1   
   137  131  138 1   
   138  131  139 1   
   139  132  136 1   
   140  140  141 1   
   141  140  149 1   
   142  141  142 1   
   143  141  144 1   
   144  141  150 1   
   145  142  143 2   
   146  142  162 1   
   147  144  145 1   
   148  144  151 1   
   149  144  152 1   
   150  145  146 1   
   151  145  153 1   
   152  145  154 1   
   153  146  147 1   
   154  146  155 1   
   155  146  156 1   
   156  147  148 1   
   157  147  157 1   
   158  147  158 1   
   159  148  159 1   
   160  148  160 1   
   161  148  161 1   
   162  162  163 1   
   163  162  171 1   
   164  163  164 1   
   165  163  166 1   
   166  163  172 1   
   167  164  165 2   
   168  164  177 1   
   169  166  167 1   
   170  166  173 1   
   171  166  174 1   
   172  167  168 1   
   173  167  175 1   
   174  167  176 1   
   175  168  169 1   
   176  168  170 1   
   177  177  178 1   
   178  177  182 1   
   179  178  179 1   
   180  178  180 1   
   181  178  181 1   
   182  184  185 1   
   183  184  186 1   
@<TRIPOS>SUBSTRUCTURE
     1 MOL         1 TEMP              0 ****  ****    0 ROOT
