@<TRIPOS>MOLECULE
MOL
  172   171     1     0     0
SMALL
resp


@<TRIPOS>ATOM
      1 C1         -0.6360    3.8060    5.8400 c3        1 MOL     -0.285224
      2 C2         -0.8110    3.4740    4.3000 c         1 MOL      0.686817
      3 O1         -0.2270    4.1090    3.4220 o         1 MOL     -0.603946
      4 H1          0.1930    4.5020    5.9700 hc        1 MOL      0.067183
      5 H2         -1.5520    4.2560    6.2210 hc        1 MOL      0.067183
      6 H3         -0.4270    2.8870    6.3880 hc        1 MOL      0.067183
      7 N1         -1.6860    2.5490    3.9490 n         1 MOL     -0.615649
      8 C3         -2.1930    2.3050    2.6320 c3        1 MOL      0.330085
      9 C4         -2.7380    3.4750    1.7650 c         1 MOL      0.574558
     10 O2         -3.7240    4.0320    2.1870 o         1 MOL     -0.590871
     11 C5         -3.2970    1.2710    2.8390 c3        1 MOL     -0.252963
     12 C6         -3.9510    0.7680    1.5560 c         1 MOL      0.865706
     13 O3         -3.3140    0.8480    0.4870 o         1 MOL     -0.781392
     14 O4         -5.0870    0.2300    1.6260 o         1 MOL     -0.781392
     15 H4         -2.0740    2.0520    4.7390 hn        1 MOL      0.294425
     16 H5         -1.4100    1.8750    2.0100 h1        1 MOL     -0.063016
     17 H6         -4.0530    1.7520    3.4710 hc        1 MOL      0.034328
     18 H7         -2.8550    0.3710    3.2660 hc        1 MOL      0.034328
     19 N2         -1.9990    3.8370    0.7460 n         1 MOL     -0.310152
     20 C7         -2.2120    5.1290    0.1050 c3        1 MOL      0.198882
     21 C8         -3.3360    5.0610   -0.9780 c         1 MOL      0.410829
     22 O5         -4.1750    5.9500   -1.1260 o         1 MOL     -0.594388
     23 C9         -0.9170    5.7060   -0.5150 c3        1 MOL     -0.415829
     24 H8         -1.1040    3.3550    0.6940 hn        1 MOL      0.295479
     25 H9         -2.5850    5.8510    0.8320 h1        1 MOL      0.025751
     26 H10        -0.4570    4.8990   -1.0790 hc        1 MOL      0.108374
     27 H11        -1.2020    6.5260   -1.1830 hc        1 MOL      0.108374
     28 H12        -0.1780    5.9850    0.2500 hc        1 MOL      0.108374
     29 N3         -3.5180    3.9140   -1.6320 n         1 MOL     -0.127925
     30 C10        -4.6900    3.6180   -2.5480 c3        1 MOL     -0.197959
     31 C11        -5.8170    2.9050   -1.8880 c         1 MOL      0.469159
     32 O6         -6.7730    2.5990   -2.5950 o         1 MOL     -0.540356
     33 C12        -4.2190    3.0620   -3.8990 c3        1 MOL      0.040278
     34 C13        -3.2650    1.8730   -3.9360 c         1 MOL      0.693478
     35 O7         -2.9200    1.2920   -2.8570 o         1 MOL     -0.715636
     36 O8         -2.8990    1.4810   -5.0520 o         1 MOL     -0.715636
     37 H13        -2.8210    3.1930   -1.5070 hn        1 MOL      0.129186
     38 H14        -5.0870    4.6000   -2.8150 h1        1 MOL      0.133774
     39 H15        -3.7270    3.8620   -4.4600 hc        1 MOL     -0.005871
     40 H16        -5.0650    2.7430   -4.5100 hc        1 MOL     -0.005871
     41 N4         -5.8300    2.7380   -0.5350 n         1 MOL     -0.156590
     42 C14        -7.0900    2.2320    0.0240 c3        1 MOL     -0.148154
     43 C15        -7.5050    0.8090   -0.4220 c         1 MOL      0.481007
     44 O9         -8.6350    0.3590   -0.2660 o         1 MOL     -0.581153
     45 H17        -5.0590    3.1660   -0.0330 hn        1 MOL      0.180072
     46 H18        -7.8920    2.9430   -0.1610 h1        1 MOL      0.087969
     47 H19        -6.9430    2.2610    1.1030 h1        1 MOL      0.087969
     48 N5         -6.5510    0.0280   -0.9760 n         1 MOL     -0.086622
     49 C16        -6.8450   -1.3610   -1.4820 c3        1 MOL     -0.269359
     50 C17        -6.9320   -2.5170   -0.4680 c         1 MOL      0.450128
     51 O10        -7.3380   -3.6480   -0.8220 o         1 MOL     -0.555599
     52 C18        -5.9570   -1.7680   -2.5990 c3        1 MOL     -0.040008
     53 C19        -4.6580   -2.3700   -2.1220 c         1 MOL      0.352770
     54 N6         -4.1980   -3.5420   -2.5240 n         1 MOL     -0.620335
     55 O11        -3.9930   -1.7030   -1.3470 o         1 MOL     -0.435169
     56 H20        -5.5710    0.2530   -0.9520 hn        1 MOL      0.099853
     57 H21        -7.8520   -1.3180   -1.9050 h1        1 MOL      0.170271
     58 H22        -5.7150   -0.9090   -3.2280 hc        1 MOL      0.079058
     59 H23        -6.5810   -2.3410   -3.2800 hc        1 MOL      0.079058
     60 H24        -4.7430   -4.1230   -3.1440 hn        1 MOL      0.327617
     61 H25        -3.3990   -3.8390   -1.9810 hn        1 MOL      0.327617
     62 N7         -6.5250   -2.2460    0.7700 n         1 MOL     -0.140058
     63 C20        -6.5780   -3.1260    1.9460 c3        1 MOL     -0.259782
     64 C21        -5.2440   -3.9560    1.9990 c         1 MOL      0.574398
     65 O12        -5.1150   -4.9310    2.7240 o         1 MOL     -0.596379
     66 H26        -6.2830   -1.2790    0.9260 hn        1 MOL      0.286188
     67 H27        -7.3810   -3.8510    1.8490 h1        1 MOL      0.125260
     68 H28        -6.6760   -2.5100    2.8420 h1        1 MOL      0.125260
     69 N8         -4.1960   -3.5350    1.3040 n         1 MOL     -0.243150
     70 C22        -2.8540   -4.1340    1.4300 c3        1 MOL      0.034790
     71 C23        -1.8070   -3.0750    1.3770 c         1 MOL      0.388554
     72 O13        -2.0370   -1.9490    0.9540 o         1 MOL     -0.462399
     73 C24        -2.4390   -5.2960    0.3910 c3        1 MOL      0.303796
     74 C25        -3.3220   -6.5200    0.4590 c3        1 MOL     -0.389561
     75 O14        -2.4600   -5.0180   -0.9980 oh        1 MOL     -0.595699
     76 H29        -4.3740   -2.6710    0.8170 hn        1 MOL      0.185465
     77 H30        -2.7550   -4.6890    2.3700 h1        1 MOL      0.080660
     78 H31        -1.3890   -5.5350    0.5430 h1        1 MOL      0.028743
     79 H32        -2.6270   -5.8020   -1.5260 ho        1 MOL      0.402903
     80 H33        -4.3330   -6.3260    0.1100 hc        1 MOL      0.102712
     81 H34        -2.8840   -7.3570   -0.0790 hc        1 MOL      0.102712
     82 H35        -3.2020   -6.7320    1.5280 hc        1 MOL      0.102712
     83 N9         -0.5560   -3.3570    1.7950 n         1 MOL     -0.296439
     84 C26         0.6730   -2.6510    1.7410 c3        1 MOL      0.181030
     85 C27         1.6430   -3.0400    0.5910 c         1 MOL      0.306809
     86 O15         2.2700   -4.1490    0.6150 o         1 MOL     -0.564491
     87 C28         1.3670   -2.5560    3.1050 c3        1 MOL      0.234732
     88 C29         0.4650   -2.1000    4.2370 c3        1 MOL     -0.044158
     89 C30         2.7240   -1.8260    3.1420 c3        1 MOL     -0.271234
     90 C31        -0.1460   -0.7300    4.2110 c3        1 MOL      0.038943
     91 H36        -0.4400   -4.3140    2.1090 hn        1 MOL      0.186345
     92 H37         0.4080   -1.6100    1.5440 h1        1 MOL     -0.044227
     93 H38         1.5810   -3.6130    3.2890 hc        1 MOL     -0.076342
     94 H39         1.2060   -2.1110    5.0250 hc        1 MOL     -0.025790
     95 H40        -0.2850   -2.8960    4.3650 hc        1 MOL     -0.025790
     96 H41         3.4960   -2.3620    2.5820 hc        1 MOL      0.066817
     97 H42         2.5100   -0.8580    2.6960 hc        1 MOL      0.066817
     98 H43         3.1270   -1.7710    4.1500 hc        1 MOL      0.066817
     99 H44        -0.7960   -0.6630    5.0890 hc        1 MOL     -0.011206
    100 H45         0.6770   -0.0110    4.2280 hc        1 MOL     -0.011206
    101 H46        -0.7630   -0.4920    3.3380 hc        1 MOL     -0.011206
    102 N10         1.8760   -2.0320   -0.2540 n         1 MOL     -0.050653
    103 C32         2.9890   -1.9340   -1.2090 c3        1 MOL     -0.031312
    104 C33         4.3760   -1.5340   -0.5860 c         1 MOL      0.514165
    105 O16         4.4090   -0.9000    0.4560 o         1 MOL     -0.361957
    106 C34         2.6100   -0.9580   -2.3360 c3        1 MOL     -0.188667
    107 C35         1.3290   -1.4590   -3.0150 c         1 MOL      0.743252
    108 O17         1.4090   -2.5320   -3.6470 o         1 MOL     -0.707966
    109 O18         0.3040   -0.7400   -2.8550 o         1 MOL     -0.707966
    110 H47         1.3080   -1.2160   -0.0460 hn        1 MOL      0.173142
    111 H48         3.0290   -2.9050   -1.6990 h1        1 MOL      0.062193
    112 H49         3.4310   -0.9550   -3.0500 hc        1 MOL      0.063205
    113 H50         2.5360    0.0160   -1.8570 hc        1 MOL      0.063205
    114 N11         5.4940   -1.9210   -1.2450 n         1 MOL     -0.721205
    115 C36         6.8520   -1.5930   -0.8110 c3        1 MOL      0.502455
    116 C37         6.9910   -0.0820   -0.6710 c         1 MOL      0.268962
    117 O19         7.4310    0.2830    0.4030 o         1 MOL     -0.465403
    118 C38         7.8920   -2.1590   -1.7260 c3        1 MOL     -0.190092
    119 C39         9.3610   -1.8020   -1.3050 ca        1 MOL      0.061969
    120 C40        10.0360   -0.7380   -1.9680 ca        1 MOL     -0.189831
    121 C41         9.9100   -2.2950   -0.1210 ca        1 MOL     -0.189831
    122 C42        11.3300   -0.3240   -1.5000 ca        1 MOL     -0.056374
    123 C43        11.1720   -1.8920    0.3600 ca        1 MOL     -0.056374
    124 C44        11.9060   -0.9090   -0.3580 ca        1 MOL     -0.177178
    125 H51         5.4030   -2.5280   -2.0570 hn        1 MOL      0.325073
    126 H52         7.0560   -1.9720    0.1820 h1        1 MOL      0.002412
    127 H53         7.7220   -1.7080   -2.7040 hc        1 MOL      0.049384
    128 H54         7.7760   -3.2410   -1.6610 hc        1 MOL      0.049384
    129 H55         9.6510   -0.2370   -2.8410 ha        1 MOL      0.126421
    130 H56         9.3010   -3.0630    0.3310 ha        1 MOL      0.126421
    131 H57        11.8950    0.4310   -2.0210 ha        1 MOL      0.100118
    132 H58        11.5030   -2.3600    1.2760 ha        1 MOL      0.100118
    133 H59        12.8260   -0.4900    0.0300 ha        1 MOL      0.124166
    134 N12         6.5670    0.7940   -1.6290 n         1 MOL      0.049319
    135 C45         6.5940    2.1640   -1.2880 c3        1 MOL      0.039584
    136 C46         5.6930    2.6620   -0.1550 c         1 MOL      0.216699
    137 O20         5.7630    3.8510    0.2470 o         1 MOL     -0.516760
    138 C47         5.9990    2.9020   -2.5340 c3        1 MOL     -0.003802
    139 C48         6.4020    2.0140   -3.6870 c3        1 MOL     -0.273092
    140 C49         6.3000    0.6830   -3.0590 c3        1 MOL      0.067405
    141 H60         7.6260    2.4820   -1.1300 h1        1 MOL      0.035856
    142 H61         4.9260    2.9980   -2.3960 hc        1 MOL      0.052391
    143 H62         6.4390    3.8950   -2.6570 hc        1 MOL      0.052391
    144 H63         5.6170    2.1490   -4.4460 hc        1 MOL      0.095281
    145 H64         7.4470    2.0980   -3.9870 hc        1 MOL      0.095281
    146 H65         5.3220    0.2560   -3.2640 h1        1 MOL      0.004558
    147 H66         7.0950    0.1050   -3.5310 h1        1 MOL      0.004558
    148 N13         4.7010    1.8950    0.2330 n         1 MOL      0.053914
    149 C50         3.9220    2.2380    1.4580 c3        1 MOL     -0.263583
    150 C51         4.6600    1.8580    2.7130 c         1 MOL      0.616828
    151 O21         4.6250    2.6470    3.6650 o         1 MOL     -0.562047
    152 C52         2.4120    1.7370    1.3440 c3        1 MOL     -0.024300
    153 C53         1.6520    2.3540    0.0850 c3        1 MOL     -0.066177
    154 C54         0.3100    1.5870   -0.2090 c         1 MOL      0.531209
    155 O22        -0.5300    2.0720   -0.9660 o         1 MOL     -0.661532
    156 O23         0.1330    0.4140    0.1910 o         1 MOL     -0.661532
    157 H67         4.6250    0.9460   -0.1140 hn        1 MOL      0.001476
    158 H68         3.7770    3.3180    1.5360 h1        1 MOL      0.143951
    159 H69         1.8490    1.9260    2.2600 hc        1 MOL      0.047429
    160 H70         2.5610    0.6610    1.3500 hc        1 MOL      0.047429
    161 H71         2.2460    2.1850   -0.8150 hc        1 MOL      0.041875
    162 H72         1.3950    3.4130    0.1300 hc        1 MOL      0.041875
    163 N14         5.3860    0.6670    2.6670 n         1 MOL     -0.191325
    164 C55         6.2140    0.1220    3.7130 c3        1 MOL     -0.286823
    165 H73         5.7970    0.3910    4.6830 h1        1 MOL      0.099035
    166 H74         6.2490   -0.9640    3.6220 h1        1 MOL      0.099035
    167 H75         7.2230    0.5270    3.6270 h1        1 MOL      0.099035
    168 H76         5.4740    0.2130    1.7700 hn        1 MOL      0.151339
    169 Ca1        -1.7250   -0.2970   -1.2050 Ca        1 MOL      1.688558
    170 O24        -1.1120   -2.8730   -1.8410 oh        1 MOL     -0.945482
    171 H77        -1.5550   -3.7180   -1.7190 ho        1 MOL      0.412752
    172 H78        -0.4530   -3.0400   -2.5130 ho        1 MOL      0.412752
@<TRIPOS>BOND
     1    1    2 1   
     2    1    4 1   
     3    1    5 1   
     4    1    6 1   
     5    2    3 2   
     6    2    7 1   
     7    7    8 1   
     8    7   15 1   
     9    8    9 1   
    10    8   11 1   
    11    8   16 1   
    12    9   10 2   
    13    9   19 1   
    14   11   12 1   
    15   11   17 1   
    16   11   18 1   
    17   12   13 1   
    18   12   14 1   
    19   19   20 1   
    20   19   24 1   
    21   20   21 1   
    22   20   23 1   
    23   20   25 1   
    24   21   22 2   
    25   21   29 1   
    26   23   26 1   
    27   23   27 1   
    28   23   28 1   
    29   29   30 1   
    30   29   37 1   
    31   30   31 1   
    32   30   33 1   
    33   30   38 1   
    34   31   32 2   
    35   31   41 1   
    36   33   34 1   
    37   33   39 1   
    38   33   40 1   
    39   34   35 1   
    40   34   36 1   
    41   41   42 1   
    42   41   45 1   
    43   42   43 1   
    44   42   46 1   
    45   42   47 1   
    46   43   44 2   
    47   43   48 1   
    48   48   49 1   
    49   48   56 1   
    50   49   50 1   
    51   49   52 1   
    52   49   57 1   
    53   50   51 2   
    54   50   62 1   
    55   52   53 1   
    56   52   58 1   
    57   52   59 1   
    58   53   54 1   
    59   53   55 2   
    60   54   60 1   
    61   54   61 1   
    62   62   63 1   
    63   62   66 1   
    64   63   64 1   
    65   63   67 1   
    66   63   68 1   
    67   64   65 2   
    68   64   69 1   
    69   69   70 1   
    70   69   76 1   
    71   70   71 1   
    72   70   73 1   
    73   70   77 1   
    74   71   72 2   
    75   71   83 1   
    76   73   74 1   
    77   73   75 1   
    78   73   78 1   
    79   74   80 1   
    80   74   81 1   
    81   74   82 1   
    82   75   79 1   
    83   83   84 1   
    84   83   91 1   
    85   84   85 1   
    86   84   87 1   
    87   84   92 1   
    88   85   86 2   
    89   85  102 1   
    90   87   88 1   
    91   87   89 1   
    92   87   93 1   
    93   88   90 1   
    94   88   94 1   
    95   88   95 1   
    96   89   96 1   
    97   89   97 1   
    98   89   98 1   
    99   90   99 1   
   100   90  100 1   
   101   90  101 1   
   102  102  103 1   
   103  102  110 1   
   104  103  104 1   
   105  103  106 1   
   106  103  111 1   
   107  104  105 2   
   108  104  114 1   
   109  106  107 1   
   110  106  112 1   
   111  106  113 1   
   112  107  108 1   
   113  107  109 1   
   114  114  115 1   
   115  114  125 1   
   116  115  116 1   
   117  115  118 1   
   118  115  126 1   
   119  116  117 2   
   120  116  134 1   
   121  118  119 1   
   122  118  127 1   
   123  118  128 1   
   124  119  120 ar  
   125  119  121 ar  
   126  120  122 ar  
   127  120  129 1   
   128  121  123 ar  
   129  121  130 1   
   130  122  124 ar  
   131  122  131 1   
   132  123  124 ar  
   133  123  132 1   
   134  124  133 1   
   135  134  135 1   
   136  134  140 1   
   137  135  136 1   
   138  135  138 1   
   139  135  141 1   
   140  136  137 2   
   141  136  148 1   
   142  138  139 1   
   143  138  142 1   
   144  138  143 1   
   145  139  140 1   
   146  139  144 1   
   147  139  145 1   
   148  140  146 1   
   149  140  147 1   
   150  148  149 1   
   151  148  157 1   
   152  149  150 1   
   153  149  152 1   
   154  149  158 1   
   155  150  151 2   
   156  150  163 1   
   157  152  153 1   
   158  152  159 1   
   159  152  160 1   
   160  153  154 1   
   161  153  161 1   
   162  153  162 1   
   163  154  155 1   
   164  154  156 1   
   165  163  164 1   
   166  163  168 1   
   167  164  165 1   
   168  164  166 1   
   169  164  167 1   
   170  170  171 1   
   171  170  172 1   
@<TRIPOS>SUBSTRUCTURE
     1 MOL         1 TEMP              0 ****  ****    0 ROOT
