@<TRIPOS>MOLECULE
MOL
  189   185     1     0     0
SMALL
resp


@<TRIPOS>ATOM
      1 C1         -1.1520    3.2490    6.1360 c3        1 MOL     -0.256714
      2 C2         -1.1490    2.6660    4.7650 c         1 MOL      0.689260
      3 O1         -0.1710    2.9340    4.0890 o         1 MOL     -0.584509
      4 H1         -1.7620    4.1530    6.1450 hc        1 MOL      0.062614
      5 H2         -1.5650    2.5260    6.8390 hc        1 MOL      0.062614
      6 H3         -0.1320    3.4980    6.4290 hc        1 MOL      0.062614
      7 N1         -2.1470    1.8370    4.4330 n         1 MOL     -0.611253
      8 C3         -2.4520    1.4700    3.0510 c3        1 MOL      0.041600
      9 C4         -2.9720    2.7160    2.2730 c         1 MOL      0.561280
     10 O2         -4.0250    3.3150    2.5290 o         1 MOL     -0.517591
     11 C5         -3.5950    0.4020    3.1210 c3        1 MOL     -0.199702
     12 C6         -4.0440   -0.0530    1.6940 c         1 MOL      0.711196
     13 O3         -3.4360    0.2880    0.6740 o         1 MOL     -0.668042
     14 O4         -5.1140   -0.6860    1.5610 o         1 MOL     -0.668042
     15 H4         -2.8320    1.6060    5.1400 hn        1 MOL      0.352506
     16 H5         -1.6000    1.0560    2.5260 h1        1 MOL      0.044661
     17 H6         -4.4710    0.8550    3.5640 hc        1 MOL      0.065766
     18 H7         -3.3050   -0.5030    3.6550 hc        1 MOL      0.065766
     19 N2         -2.0370    3.2810    1.5110 n         1 MOL     -0.184734
     20 C7         -2.0440    4.6840    1.0070 c3        1 MOL     -0.003108
     21 C8         -3.1650    4.9580    0.0400 c         1 MOL      0.362680
     22 O5         -3.8920    5.9290    0.1390 o         1 MOL     -0.525085
     23 C9         -0.6490    5.0750    0.5090 c3        1 MOL     -0.197801
     24 C10        -0.1490    6.2900    1.2770 c3        1 MOL      0.109099
     25 C11         1.1020    6.9150    0.6640 c3        1 MOL     -0.251298
     26 C12         0.9110    7.8050   -0.5530 c3        1 MOL      0.110504
     27 N3          2.1000    8.5630   -1.0210 n4        1 MOL     -0.304297
     28 H8         -1.1620    2.7800    1.4610 hn        1 MOL      0.146548
     29 H9         -2.2610    5.2760    1.9030 h1        1 MOL      0.071089
     30 H10        -0.5840    5.0570   -0.5760 hc        1 MOL      0.083741
     31 H11         0.0430    4.2600    0.7190 hc        1 MOL      0.083741
     32 H12         0.0940    5.9670    2.2880 hc        1 MOL      0.046328
     33 H13        -0.9720    6.9980    1.2510 hc        1 MOL      0.046328
     34 H14         1.7300    6.0840    0.3610 hc        1 MOL      0.079866
     35 H15         1.5680    7.5040    1.4540 hc        1 MOL      0.079866
     36 H16         0.2450    8.6150   -0.2530 hx        1 MOL      0.064519
     37 H17         0.4170    7.1850   -1.3070 hx        1 MOL      0.064519
     38 H18         1.9640    9.2520   -1.7470 hn        1 MOL      0.303142
     39 H19         2.5080    8.9960   -0.2070 hn        1 MOL      0.303142
     40 H20         2.7940    7.8890   -1.3110 hn        1 MOL      0.303142
     41 N4         -3.5780    3.9220   -0.7300 n         1 MOL     -0.128104
     42 C13        -4.5870    3.9180   -1.7900 c3        1 MOL      0.005177
     43 C14        -5.9660    3.1060   -1.4480 c         1 MOL      0.380928
     44 O6         -6.9960    3.2120   -2.0880 o         1 MOL     -0.480473
     45 C15        -4.0500    3.5040   -3.1340 c3        1 MOL     -0.192952
     46 C16        -3.0430    2.3350   -3.2480 c         1 MOL      0.777614
     47 O7         -2.8490    1.6390   -2.2510 o         1 MOL     -0.728240
     48 O8         -2.4210    2.0770   -4.3270 o         1 MOL     -0.728240
     49 H21        -3.0960    3.0390   -0.6410 hn        1 MOL      0.076165
     50 H22        -4.8680    4.9480   -2.0130 h1        1 MOL      0.080380
     51 H23        -3.4060    4.3180   -3.4610 hc        1 MOL      0.041632
     52 H24        -4.8900    3.3560   -3.8020 hc        1 MOL      0.041632
     53 N5         -5.8380    2.4250   -0.3060 n         1 MOL     -0.083408
     54 C17        -6.9590    1.6440    0.2630 c3        1 MOL     -0.222615
     55 C18        -7.4500    0.5280   -0.6340 c         1 MOL      0.575815
     56 O9         -8.6450    0.3540   -0.8430 o         1 MOL     -0.573019
     57 H25        -4.9580    2.2970    0.1680 hn        1 MOL      0.104887
     58 H26        -7.7310    2.3850    0.4660 h1        1 MOL      0.104542
     59 H27        -6.6050    1.2620    1.2200 h1        1 MOL      0.104542
     60 N6         -6.5330   -0.2530   -1.1760 n         1 MOL     -0.175287
     61 C19        -6.9180   -1.5510   -1.8270 c3        1 MOL     -0.174129
     62 C20        -6.8610   -2.7710   -0.9440 c         1 MOL      0.449819
     63 O10        -7.3030   -3.8370   -1.3480 o         1 MOL     -0.529729
     64 C21        -6.1710   -1.7710   -3.1510 c3        1 MOL     -0.015310
     65 C22        -4.6360   -2.0820   -2.8970 c         1 MOL      0.662243
     66 O11        -4.0370   -2.9120   -3.5350 o         1 MOL     -0.656021
     67 O12        -4.0250   -1.3870   -2.0750 o         1 MOL     -0.656021
     68 H28        -5.5700   -0.1740   -0.8530 hn        1 MOL      0.086055
     69 H29        -7.9580   -1.3920   -2.1340 h1        1 MOL      0.144722
     70 H30        -6.2760   -0.8860   -3.7860 hc        1 MOL      0.028929
     71 H31        -6.6020   -2.5710   -3.7460 hc        1 MOL      0.028929
     72 N7         -6.3890   -2.7070    0.3170 n         1 MOL     -0.129803
     73 C23        -6.3420   -3.8190    1.2710 c3        1 MOL     -0.418312
     74 C24        -5.0500   -4.6070    1.2230 c         1 MOL      0.700573
     75 O13        -4.9580   -5.6780    1.7950 o         1 MOL     -0.612364
     76 H32        -5.8780   -1.8720    0.5570 hn        1 MOL      0.170550
     77 H33        -7.1460   -4.4910    0.9990 h1        1 MOL      0.169720
     78 H34        -6.3980   -3.3850    2.2690 h1        1 MOL      0.169720
     79 N8         -3.9600   -4.0730    0.7130 n         1 MOL     -0.434940
     80 C25        -2.6180   -4.7020    0.4710 c3        1 MOL     -0.019613
     81 C26        -1.5080   -3.6940    0.6350 c         1 MOL      0.625782
     82 O14        -1.6520   -2.5230    0.0500 o         1 MOL     -0.716707
     83 C27        -2.5930   -5.3040   -0.9100 c3        1 MOL      0.347832
     84 C28        -1.2390   -5.8720   -1.1750 c3        1 MOL     -0.394462
     85 O15        -3.5310   -6.4110   -1.0510 oh        1 MOL     -0.578722
     86 H35        -4.0650   -3.1970    0.2230 hn        1 MOL      0.268592
     87 H36        -2.4810   -5.4900    1.2200 h1        1 MOL      0.055731
     88 H37        -2.8470   -4.5670   -1.6630 h1        1 MOL      0.138761
     89 H38        -3.0480   -7.0890   -0.5650 ho        1 MOL      0.373840
     90 H39        -1.2890   -6.5680   -2.0050 hc        1 MOL      0.085519
     91 H40        -0.5330   -5.0670   -1.3730 hc        1 MOL      0.085519
     92 H41        -0.8140   -6.3690   -0.2940 hc        1 MOL      0.085519
     93 N9         -0.3680   -4.0470    1.1880 n         1 MOL     -0.488986
     94 C29         0.9090   -3.2960    1.5690 c3        1 MOL      0.144479
     95 C30         2.1340   -3.7120    0.6740 c         1 MOL      0.448104
     96 O16         2.4780   -4.8830    0.6210 o         1 MOL     -0.526920
     97 C31         1.2390   -3.5170    3.0730 c3        1 MOL     -0.032321
     98 C32         0.2740   -2.8160    4.0110 c3        1 MOL     -0.073334
     99 C33         2.7010   -3.0630    3.5280 c3        1 MOL     -0.272154
    100 C34         0.3190   -1.3100    4.1390 c3        1 MOL      0.072386
    101 H42        -0.3170   -5.0130    1.4750 hn        1 MOL      0.285180
    102 H43         0.8390   -2.2170    1.4260 h1        1 MOL      0.146994
    103 H44         1.1570   -4.5900    3.2220 hc        1 MOL      0.039746
    104 H45         0.4430   -3.2490    4.9890 hc        1 MOL      0.025172
    105 H46        -0.7620   -3.0350    3.7590 hc        1 MOL      0.025172
    106 H47         2.9430   -2.0070    3.3650 hc        1 MOL      0.072033
    107 H48         2.8120   -3.1730    4.5980 hc        1 MOL      0.072033
    108 H49         3.4940   -3.6160    3.0140 hc        1 MOL      0.072033
    109 H50         0.0390   -0.8700    3.1750 hc        1 MOL     -0.002691
    110 H51        -0.3760   -1.0680    4.9430 hc        1 MOL     -0.002691
    111 H52         1.3330   -1.0670    4.4780 hc        1 MOL     -0.002691
    112 N10         2.6720   -2.6850   -0.0350 n         1 MOL     -0.100566
    113 C35         3.8000   -2.8250   -1.0050 c3        1 MOL     -0.063416
    114 C36         5.1550   -2.5680   -0.3230 c         1 MOL      0.321745
    115 O17         5.1900   -2.1630    0.7760 o         1 MOL     -0.276115
    116 C37         3.5020   -1.9560   -2.2470 c3        1 MOL      0.390409
    117 C38         2.2540   -2.2990   -3.0030 c3        1 MOL     -0.703954
    118 O18         3.5110   -0.5800   -1.9550 oh        1 MOL     -0.611653
    119 H53         2.1850   -1.7960   -0.0050 hn        1 MOL      0.045232
    120 H54         3.9190   -3.8400   -1.3790 h1        1 MOL      0.062541
    121 H55         4.3150   -2.0220   -2.9610 h1        1 MOL      0.005064
    122 H56         2.7760   -0.3960   -1.3620 ho        1 MOL      0.396977
    123 H57         1.4120   -1.7360   -2.6240 hc        1 MOL      0.198690
    124 H58         2.3950   -1.9020   -4.0120 hc        1 MOL      0.198690
    125 H59         2.0130   -3.3570   -2.8950 hc        1 MOL      0.198690
    126 N11         6.2660   -2.5960   -1.1030 n         1 MOL     -0.244781
    127 C39         7.6620   -2.2340   -0.6580 c3        1 MOL     -0.265352
    128 C40         7.8060   -0.8300   -0.2510 c         1 MOL      0.547717
    129 O19         8.8270   -0.5000    0.3250 o         1 MOL     -0.524731
    130 C41         8.6940   -2.5640   -1.7060 c3        1 MOL      0.341652
    131 C42         9.0740   -4.0440   -1.6740 c3        1 MOL     -0.370025
    132 O20         8.1990   -2.1500   -2.9760 oh        1 MOL     -0.623441
    133 H60         6.1820   -2.9550   -2.0420 hn        1 MOL      0.249106
    134 H61         7.6490   -2.8730    0.2160 h1        1 MOL      0.176327
    135 H62         9.6160   -2.0240   -1.4980 h1        1 MOL      0.037963
    136 H63         8.9940   -2.1810   -3.5140 ho        1 MOL      0.407051
    137 H64         9.9860   -4.2290   -2.2300 hc        1 MOL      0.104486
    138 H65         9.2170   -4.3660   -0.6430 hc        1 MOL      0.104486
    139 H66         8.2350   -4.6090   -2.0850 hc        1 MOL      0.104486
    140 N12         6.7350    0.0180   -0.5070 n         1 MOL     -0.195733
    141 C43         6.6510    1.4980   -0.2140 c3        1 MOL     -0.106652
    142 C44         5.7490    1.8530    0.9910 c         1 MOL      0.377921
    143 O21         6.0380    2.7790    1.7390 o         1 MOL     -0.521334
    144 C45         6.1600    2.2020   -1.4590 c3        1 MOL     -0.029025
    145 C46         7.4520    2.2260   -2.4390 c3        1 MOL      0.020004
    146 C47         6.9860    3.0670   -3.6660 c3        1 MOL     -0.102766
    147 C48         6.0270    2.4060   -4.6080 c3        1 MOL      0.070886
    148 N13         5.3270    3.3920   -5.4500 n4        1 MOL     -0.244422
    149 H67         5.8770   -0.3740   -0.8790 hn        1 MOL      0.084027
    150 H68         7.5670    1.9560    0.1550 h1        1 MOL      0.131141
    151 H69         5.7610    3.1880   -1.2340 hc        1 MOL      0.023100
    152 H70         5.3440    1.7300   -2.0020 hc        1 MOL      0.023100
    153 H71         7.8460    1.2360   -2.6780 hc        1 MOL      0.036709
    154 H72         8.1650    2.8010   -1.8440 hc        1 MOL      0.036709
    155 H73         7.8970    3.3520   -4.1980 hc        1 MOL      0.035102
    156 H74         6.4980    3.9690   -3.2950 hc        1 MOL      0.035102
    157 H75         5.2280    1.8680   -4.1070 hx        1 MOL      0.080723
    158 H76         6.5390    1.7500   -5.3160 hx        1 MOL      0.080723
    159 H77         4.3440    3.2040   -5.5820 hn        1 MOL      0.266715
    160 H78         5.4940    4.3140   -5.0560 hn        1 MOL      0.266715
    161 H79         5.6830    3.4150   -6.3950 hn        1 MOL      0.266715
    162 N14         4.7740    1.0130    1.2340 n         1 MOL     -0.094536
    163 C49         3.9830    1.0960    2.4220 c3        1 MOL     -0.104619
    164 C50         4.6180    0.2400    3.5840 c         1 MOL      0.482655
    165 O22         4.5020    0.5120    4.7720 o         1 MOL     -0.532632
    166 C51         2.5640    0.7620    2.1720 c3        1 MOL      0.269079
    167 C52         2.0070    1.5450    0.8320 c3        1 MOL     -0.179497
    168 C53         0.8730    0.7160    0.2270 c         1 MOL      0.692657
    169 O23         1.1380   -0.2850   -0.4790 o         1 MOL     -0.700964
    170 O24        -0.3340    0.9570    0.3310 o         1 MOL     -0.700964
    171 H80         4.7170    0.1750    0.6720 hn        1 MOL      0.177276
    172 H81         4.0160    2.1200    2.8080 h1        1 MOL      0.082180
    173 H82         2.0000    0.9560    3.0860 hc        1 MOL     -0.032698
    174 H83         2.6140   -0.2960    1.9160 hc        1 MOL     -0.032698
    175 H84         2.8150    1.6110    0.1010 hc        1 MOL      0.014959
    176 H85         1.7050    2.5460    1.1120 hc        1 MOL      0.014959
    177 N15         5.3580   -0.8440    3.2490 n         1 MOL     -0.084848
    178 C54         6.2310   -1.5820    4.2090 c3        1 MOL     -0.394563
    179 H86         6.6350   -2.4700    3.7240 h1        1 MOL      0.143322
    180 H87         7.0510   -0.9370    4.5260 h1        1 MOL      0.143322
    181 H88         5.6450   -1.8790    5.0800 h1        1 MOL      0.143322
    182 H89         5.4060   -1.1660    2.2900 hn        1 MOL      0.029456
    183 Ca1        -1.8410   -0.3550   -1.2120 Ca        1 MOL      1.767213
    184 O25        -0.5770    0.4060   -3.4270 oh        1 MOL     -0.895724
    185 H90         0.0320    0.1870   -4.1290 ho        1 MOL      0.403909
    186 H91        -1.2160    0.9870   -3.8410 ho        1 MOL      0.403909
    187 O26        -1.2010   -2.4560   -2.9930 oh        1 MOL     -0.895724
    188 H92        -2.0120   -2.9120   -3.2370 ho        1 MOL      0.403909
    189 H93        -0.8520   -2.1250   -3.8220 ho        1 MOL      0.403909
@<TRIPOS>BOND
     1    1    2 1   
     2    1    4 1   
     3    1    5 1   
     4    1    6 1   
     5    2    3 2   
     6    2    7 1   
     7    7    8 1   
     8    7   15 1   
     9    8    9 1   
    10    8   11 1   
    11    8   16 1   
    12    9   10 2   
    13    9   19 1   
    14   11   12 1   
    15   11   17 1   
    16   11   18 1   
    17   12   13 1   
    18   12   14 1   
    19   19   20 1   
    20   19   28 1   
    21   20   21 1   
    22   20   23 1   
    23   20   29 1   
    24   21   22 2   
    25   21   41 1   
    26   23   24 1   
    27   23   30 1   
    28   23   31 1   
    29   24   25 1   
    30   24   32 1   
    31   24   33 1   
    32   25   26 1   
    33   25   34 1   
    34   25   35 1   
    35   26   27 1   
    36   26   36 1   
    37   26   37 1   
    38   27   38 1   
    39   27   39 1   
    40   27   40 1   
    41   41   42 1   
    42   41   49 1   
    43   42   43 1   
    44   42   45 1   
    45   42   50 1   
    46   43   44 2   
    47   43   53 1   
    48   45   46 1   
    49   45   51 1   
    50   45   52 1   
    51   46   47 1   
    52   46   48 1   
    53   53   54 1   
    54   53   57 1   
    55   54   55 1   
    56   54   58 1   
    57   54   59 1   
    58   55   56 2   
    59   55   60 1   
    60   60   61 1   
    61   60   68 1   
    62   61   62 1   
    63   61   64 1   
    64   61   69 1   
    65   62   63 2   
    66   62   72 1   
    67   64   65 1   
    68   64   70 1   
    69   64   71 1   
    70   65   66 1   
    71   65   67 1   
    72   72   73 1   
    73   72   76 1   
    74   73   74 1   
    75   73   77 1   
    76   73   78 1   
    77   74   75 2   
    78   74   79 1   
    79   79   80 1   
    80   79   86 1   
    81   80   81 1   
    82   80   83 1   
    83   80   87 1   
    84   81   82 2   
    85   81   93 1   
    86   83   84 1   
    87   83   85 1   
    88   83   88 1   
    89   84   90 1   
    90   84   91 1   
    91   84   92 1   
    92   85   89 1   
    93   93   94 1   
    94   93  101 1   
    95   94   95 1   
    96   94   97 1   
    97   94  102 1   
    98   95   96 2   
    99   95  112 1   
   100   97   98 1   
   101   97   99 1   
   102   97  103 1   
   103   98  100 1   
   104   98  104 1   
   105   98  105 1   
   106   99  106 1   
   107   99  107 1   
   108   99  108 1   
   109  100  109 1   
   110  100  110 1   
   111  100  111 1   
   112  112  113 1   
   113  112  119 1   
   114  113  114 1   
   115  113  116 1   
   116  113  120 1   
   117  114  115 2   
   118  114  126 1   
   119  116  117 1   
   120  116  118 1   
   121  116  121 1   
   122  117  123 1   
   123  117  124 1   
   124  117  125 1   
   125  118  122 1   
   126  126  127 1   
   127  126  133 1   
   128  127  128 1   
   129  127  130 1   
   130  127  134 1   
   131  128  129 2   
   132  128  140 1   
   133  130  131 1   
   134  130  132 1   
   135  130  135 1   
   136  131  137 1   
   137  131  138 1   
   138  131  139 1   
   139  132  136 1   
   140  140  141 1   
   141  140  149 1   
   142  141  142 1   
   143  141  144 1   
   144  141  150 1   
   145  142  143 2   
   146  142  162 1   
   147  144  145 1   
   148  144  151 1   
   149  144  152 1   
   150  145  146 1   
   151  145  153 1   
   152  145  154 1   
   153  146  147 1   
   154  146  155 1   
   155  146  156 1   
   156  147  148 1   
   157  147  157 1   
   158  147  158 1   
   159  148  159 1   
   160  148  160 1   
   161  148  161 1   
   162  162  163 1   
   163  162  171 1   
   164  163  164 1   
   165  163  166 1   
   166  163  172 1   
   167  164  165 2   
   168  164  177 1   
   169  166  167 1   
   170  166  173 1   
   171  166  174 1   
   172  167  168 1   
   173  167  175 1   
   174  167  176 1   
   175  168  169 1   
   176  168  170 1   
   177  177  178 1   
   178  177  182 1   
   179  178  179 1   
   180  178  180 1   
   181  178  181 1   
   182  184  185 1   
   183  184  186 1   
   184  187  188 1   
   185  187  189 1   
@<TRIPOS>SUBSTRUCTURE
     1 MOL         1 TEMP              0 ****  ****    0 ROOT
