@<TRIPOS>MOLECULE
MOL
  172   171     1     0     0
SMALL
resp


@<TRIPOS>ATOM
      1 C1          0.3160   -4.0080    5.5120 c3        1 MOL     -0.376937
      2 C2          0.8600   -3.5820    4.1260 c         1 MOL      0.715821
      3 O1          0.3700   -4.1550    3.1360 o         1 MOL     -0.576403
      4 H1          0.9960   -3.6630    6.2910 hc        1 MOL      0.088538
      5 H2         -0.6680   -3.5660    5.6680 hc        1 MOL      0.088538
      6 H3          0.2380   -5.0940    5.5540 hc        1 MOL      0.088538
      7 N1          1.8300   -2.6720    4.0640 n         1 MOL     -0.639962
      8 C3          2.5290   -2.3830    2.7510 c3        1 MOL      0.128623
      9 C4          3.0740   -3.5780    1.9830 c         1 MOL      0.719340
     10 O2          3.8960   -4.3130    2.4630 o         1 MOL     -0.652189
     11 C5          3.7690   -1.4800    3.0300 c3        1 MOL     -0.123905
     12 C6          4.3580   -0.7700    1.8770 c         1 MOL      0.733241
     13 O3          3.8310   -0.7370    0.7170 o         1 MOL     -0.728374
     14 O4          5.4660   -0.1900    2.0320 o         1 MOL     -0.728374
     15 H4          1.8880   -1.9930    4.8160 hn        1 MOL      0.339256
     16 H5          1.8310   -1.8310    2.1150 h1        1 MOL      0.018921
     17 H6          4.5300   -1.9560    3.6580 hc        1 MOL      0.022519
     18 H7          3.3510   -0.6650    3.6170 hc        1 MOL      0.022519
     19 N2          2.5940   -3.9430    0.8100 n         1 MOL     -0.380865
     20 C7          2.7550   -5.2440    0.1410 c3        1 MOL      0.307753
     21 C8          3.7640   -5.0910   -1.0470 c         1 MOL      0.265196
     22 O5          4.3870   -6.0180   -1.5440 o         1 MOL     -0.583223
     23 C9          1.3690   -5.6780   -0.3320 c3        1 MOL     -0.382112
     24 H8          1.8220   -3.3810    0.4620 hn        1 MOL      0.210698
     25 H9          3.1580   -5.9770    0.8350 h1        1 MOL      0.011785
     26 H10         1.0820   -4.9240   -1.0730 hc        1 MOL      0.099119
     27 H11         1.4240   -6.7210   -0.6170 hc        1 MOL      0.099119
     28 H12         0.7690   -5.5300    0.5640 hc        1 MOL      0.099119
     29 N3          3.9910   -3.8840   -1.4910 n         1 MOL      0.005312
     30 C10         4.8700   -3.5720   -2.6290 c3        1 MOL      0.000358
     31 C11         6.1040   -2.7200   -2.1470 c         1 MOL      0.349019
     32 O6          6.9180   -2.2400   -2.9230 o         1 MOL     -0.562761
     33 C12         4.1050   -2.9970   -3.8410 c3        1 MOL     -0.062470
     34 C13         2.9420   -2.1090   -3.4170 c         1 MOL      0.605763
     35 O7          1.8850   -2.2160   -4.0810 o         1 MOL     -0.668657
     36 O8          3.1030   -1.2790   -2.4750 o         1 MOL     -0.668657
     37 H13         3.4090   -3.1530   -1.0920 hn        1 MOL      0.142054
     38 H14         5.3340   -4.5030   -2.9540 h1        1 MOL      0.090028
     39 H15         3.8280   -3.8230   -4.4910 hc        1 MOL      0.011968
     40 H16         4.8080   -2.3490   -4.3700 hc        1 MOL      0.011968
     41 N4          6.2920   -2.5020   -0.8840 n         1 MOL     -0.183691
     42 C14         7.4000   -1.8370   -0.1370 c3        1 MOL      0.088064
     43 C15         7.7510   -0.4180   -0.5300 c         1 MOL      0.445238
     44 O9          8.8820   -0.0390   -0.5030 o         1 MOL     -0.586391
     45 H17         5.6040   -2.9140   -0.2710 hn        1 MOL      0.098650
     46 H18         8.2570   -2.5150   -0.1450 h1        1 MOL      0.044821
     47 H19         7.1720   -1.7850    0.9260 h1        1 MOL      0.044821
     48 N5          6.7490    0.3620   -0.9840 n         1 MOL     -0.057622
     49 C16         6.7870    1.6950   -1.5560 c3        1 MOL     -0.029054
     50 C17         6.4450    2.8310   -0.5680 c         1 MOL      0.425597
     51 O10         6.3650    4.0310   -0.9090 o         1 MOL     -0.542720
     52 C18         6.0890    1.7220   -2.9460 c3        1 MOL     -0.149770
     53 C19         4.6190    2.0800   -2.8550 c         1 MOL      0.600367
     54 N6          4.0970    2.7450   -3.8780 n         1 MOL     -0.748903
     55 O11         3.9150    1.8740   -1.8440 o         1 MOL     -0.561708
     56 H20         5.8280    0.0650   -0.7080 hn        1 MOL      0.024182
     57 H21         7.8370    1.8990   -1.7240 h1        1 MOL      0.093604
     58 H22         6.1340    0.7330   -3.4030 hc        1 MOL      0.072382
     59 H23         6.6530    2.4450   -3.5270 hc        1 MOL      0.072382
     60 H24         4.6090    3.1360   -4.6450 hn        1 MOL      0.359681
     61 H25         3.0940    2.9130   -3.8620 hn        1 MOL      0.359681
     62 N7          6.2380    2.4480    0.6880 n         1 MOL     -0.212957
     63 C20         6.1640    3.3210    1.8630 c3        1 MOL     -0.215936
     64 C21         4.8580    4.2050    2.0000 c         1 MOL      0.551758
     65 O12         4.8230    5.1740    2.7300 o         1 MOL     -0.574487
     66 H26         6.3530    1.4620    0.9050 hn        1 MOL      0.261339
     67 H27         6.9820    4.0430    1.8950 h1        1 MOL      0.111493
     68 H28         6.1930    2.6540    2.7240 h1        1 MOL      0.111493
     69 N8          3.7750    3.8130    1.3210 n         1 MOL     -0.256059
     70 C22         2.4590    4.4230    1.3590 c3        1 MOL     -0.003534
     71 C23         1.3930    3.3420    1.3010 c         1 MOL      0.607963
     72 O13         1.6680    2.1850    0.9970 o         1 MOL     -0.563018
     73 C24         2.3110    5.5420    0.2860 c3        1 MOL      0.264898
     74 C25         3.3000    6.7140    0.4060 c3        1 MOL     -0.439758
     75 O14         2.3650    4.9500   -1.0020 oh        1 MOL     -0.512329
     76 H29         3.8630    2.9620    0.7820 hn        1 MOL      0.198273
     77 H30         2.2850    4.8750    2.3430 h1        1 MOL      0.062053
     78 H31         1.2870    5.8950    0.3670 h1        1 MOL     -0.007295
     79 H32         2.1530    5.6530   -1.6220 ho        1 MOL      0.368800
     80 H33         4.2910    6.3220    0.1810 hc        1 MOL      0.122737
     81 H34         3.0980    7.5430   -0.2720 hc        1 MOL      0.122737
     82 H35         3.2520    7.0340    1.4540 hc        1 MOL      0.122737
     83 N9          0.1470    3.6930    1.6980 n         1 MOL     -0.583197
     84 C26        -0.9610    2.7140    1.6890 c3        1 MOL      0.127468
     85 C27        -1.8220    2.9530    0.4110 c         1 MOL      0.526866
     86 O15        -2.2500    4.0810    0.1510 o         1 MOL     -0.581381
     87 C28        -1.7630    2.8240    3.0180 c3        1 MOL      0.135102
     88 C29        -0.9380    2.0500    4.0310 c3        1 MOL      0.052870
     89 C30        -3.1040    2.1870    2.8860 c3        1 MOL     -0.265614
     90 C31        -1.3880    2.4190    5.4810 c3        1 MOL     -0.265137
     91 H36        -0.0060    4.6290    2.0520 hn        1 MOL      0.289222
     92 H37        -0.5550    1.7110    1.6660 h1        1 MOL     -0.026354
     93 H38        -1.8420    3.8920    3.2300 hc        1 MOL      0.006606
     94 H39         0.1140    2.3220    3.9960 hc        1 MOL      0.028519
     95 H40        -1.0150    0.9670    3.9430 hc        1 MOL      0.028519
     96 H41        -3.4790    1.9980    3.8880 hc        1 MOL      0.041320
     97 H42        -3.7230    2.7660    2.2110 hc        1 MOL      0.041320
     98 H43        -2.9770    1.1970    2.4250 hc        1 MOL      0.041320
     99 H44        -2.4370    2.1650    5.6790 hc        1 MOL      0.052674
    100 H45        -0.7570    1.7890    6.1010 hc        1 MOL      0.052674
    101 H46        -1.3230    3.4940    5.6740 hc        1 MOL      0.052674
    102 N10        -2.0900    1.8170   -0.2980 n         1 MOL     -0.250955
    103 C32        -3.0640    1.7420   -1.4570 c3        1 MOL     -0.005868
    104 C33        -4.4360    1.3330   -0.9290 c         1 MOL      0.575601
    105 O16        -4.6150    0.8080    0.2040 o         1 MOL     -0.403662
    106 C34        -2.5920    0.7600   -2.5610 c3        1 MOL     -0.305107
    107 C35        -1.1050    0.9810   -2.8440 c         1 MOL      0.814760
    108 O17        -0.7300    2.0030   -3.4440 o         1 MOL     -0.722849
    109 O18        -0.2440    0.1260   -2.4510 o         1 MOL     -0.722849
    110 H47        -1.5860    0.9870   -0.0310 hn        1 MOL      0.221778
    111 H48        -3.1530    2.7290   -1.9020 h1        1 MOL      0.071792
    112 H49        -3.2080    0.9340   -3.4470 hc        1 MOL      0.073104
    113 H50        -2.7360   -0.2620   -2.2140 hc        1 MOL      0.073104
    114 N11        -5.5020    1.4560   -1.7610 n         1 MOL     -0.813864
    115 C36        -6.8360    1.1280   -1.2730 c3        1 MOL      0.618071
    116 C37        -7.1200   -0.3530   -0.7690 c         1 MOL      0.222729
    117 O19        -7.6980   -0.4920    0.3530 o         1 MOL     -0.466000
    118 C38        -7.8880    1.5500   -2.3070 c3        1 MOL     -0.386967
    119 C39        -9.3410    1.5010   -1.9100 ca        1 MOL      0.211013
    120 C40        -9.7560    1.9790   -0.6610 ca        1 MOL     -0.179494
    121 C41       -10.1790    0.9230   -2.8120 ca        1 MOL     -0.179494
    122 C42       -11.1350    1.8850   -0.3340 ca        1 MOL     -0.111764
    123 C43       -11.5490    0.9550   -2.5430 ca        1 MOL     -0.111764
    124 C44       -12.0180    1.3620   -1.2890 ca        1 MOL     -0.153866
    125 H51        -5.3120    1.6300   -2.7400 hn        1 MOL      0.388006
    126 H52        -6.9810    1.7060   -0.3560 h1        1 MOL      0.014250
    127 H53        -7.7320    0.9580   -3.2100 hc        1 MOL      0.083801
    128 H54        -7.8110    2.6050   -2.5800 hc        1 MOL      0.083801
    129 H55        -9.0710    2.3590    0.0810 ha        1 MOL      0.121292
    130 H56        -9.8520    0.3010   -3.6310 ha        1 MOL      0.121292
    131 H57       -11.4630    2.2070    0.6480 ha        1 MOL      0.110711
    132 H58       -12.1790    0.3840   -3.2070 ha        1 MOL      0.110711
    133 H59       -13.0360    1.1820   -0.9700 ha        1 MOL      0.111481
    134 N12        -6.6110   -1.4530   -1.4460 n         1 MOL     -0.099949
    135 C45        -6.5920   -2.7920   -0.8110 c3        1 MOL     -0.017825
    136 C46        -5.6570   -2.9290    0.4630 c         1 MOL      0.308079
    137 O20        -6.0140   -3.7230    1.4160 o         1 MOL     -0.496150
    138 C47        -6.1340   -3.6950   -1.8970 c3        1 MOL      0.010438
    139 C48        -5.3310   -2.8590   -2.8140 c3        1 MOL      0.012701
    140 C49        -5.9270   -1.4690   -2.6490 c3        1 MOL      0.007043
    141 H60        -7.5770   -3.1770   -0.5550 h1        1 MOL      0.080609
    142 H61        -5.5330   -4.5090   -1.5100 hc        1 MOL      0.017515
    143 H62        -6.9720   -4.1810   -2.3970 hc        1 MOL      0.017515
    144 H63        -4.2870   -2.9570   -2.5220 hc        1 MOL      0.020980
    145 H64        -5.3340   -3.2060   -3.8470 hc        1 MOL      0.020980
    146 H65        -5.1130   -0.7400   -2.6590 h1        1 MOL     -0.000246
    147 H66        -6.6760   -1.2410   -3.4130 h1        1 MOL     -0.000246
    148 N13        -4.5640   -2.1500    0.5340 n         1 MOL     -0.136396
    149 C50        -3.7010   -2.0830    1.7400 c3        1 MOL     -0.229036
    150 C51        -4.4850   -1.3920    2.9240 c         1 MOL      0.489925
    151 O21        -4.3120   -1.8260    4.0600 o         1 MOL     -0.559088
    152 C52        -2.4250   -1.3700    1.4810 c3        1 MOL      0.094769
    153 C53        -1.5710   -2.1560    0.5570 c3        1 MOL     -0.236611
    154 C54        -0.2480   -1.4670    0.2920 c         1 MOL      0.684523
    155 O22        -0.0960   -0.2170    0.4620 o         1 MOL     -0.693001
    156 O23         0.7850   -2.0110   -0.2240 o         1 MOL     -0.693001
    157 H67        -4.2860   -1.6030   -0.2630 hn        1 MOL      0.213852
    158 H68        -3.4320   -3.0990    2.0260 h1        1 MOL      0.145555
    159 H69        -1.8560   -1.2000    2.3970 hc        1 MOL      0.055728
    160 H70        -2.6060   -0.4430    0.9360 hc        1 MOL      0.055728
    161 H71        -2.0600   -2.1810   -0.4220 hc        1 MOL      0.075052
    162 H72        -1.3920   -3.1790    0.8810 hc        1 MOL      0.075052
    163 N14        -5.3720   -0.4250    2.6440 n         1 MOL      0.028278
    164 C55        -6.2710    0.1200    3.6900 c3        1 MOL     -0.360966
    165 H73        -5.6750    0.4950    4.5220 h1        1 MOL      0.119014
    166 H74        -6.8630    0.9340    3.2730 h1        1 MOL      0.119014
    167 H75        -6.9360   -0.6670    4.0460 h1        1 MOL      0.119014
    168 H76        -5.4500   -0.1170    1.6780 hn        1 MOL      0.040430
    169 Ca1         1.9150    0.3770   -0.9390 Ca        1 MOL      1.704911
    170 O24         1.0560    2.7920   -1.6960 oh        1 MOL     -0.899884
    171 H77         1.4550    3.6410   -1.5380 ho        1 MOL      0.403344
    172 H78         0.3140    2.9800   -2.2700 ho        1 MOL      0.403344
@<TRIPOS>BOND
     1    1    2 1   
     2    1    4 1   
     3    1    5 1   
     4    1    6 1   
     5    2    3 2   
     6    2    7 1   
     7    7    8 1   
     8    7   15 1   
     9    8    9 1   
    10    8   11 1   
    11    8   16 1   
    12    9   10 2   
    13    9   19 1   
    14   11   12 1   
    15   11   17 1   
    16   11   18 1   
    17   12   13 1   
    18   12   14 1   
    19   19   20 1   
    20   19   24 1   
    21   20   21 1   
    22   20   23 1   
    23   20   25 1   
    24   21   22 2   
    25   21   29 1   
    26   23   26 1   
    27   23   27 1   
    28   23   28 1   
    29   29   30 1   
    30   29   37 1   
    31   30   31 1   
    32   30   33 1   
    33   30   38 1   
    34   31   32 2   
    35   31   41 1   
    36   33   34 1   
    37   33   39 1   
    38   33   40 1   
    39   34   35 1   
    40   34   36 1   
    41   41   42 1   
    42   41   45 1   
    43   42   43 1   
    44   42   46 1   
    45   42   47 1   
    46   43   44 2   
    47   43   48 1   
    48   48   49 1   
    49   48   56 1   
    50   49   50 1   
    51   49   52 1   
    52   49   57 1   
    53   50   51 2   
    54   50   62 1   
    55   52   53 1   
    56   52   58 1   
    57   52   59 1   
    58   53   54 1   
    59   53   55 2   
    60   54   60 1   
    61   54   61 1   
    62   62   63 1   
    63   62   66 1   
    64   63   64 1   
    65   63   67 1   
    66   63   68 1   
    67   64   65 2   
    68   64   69 1   
    69   69   70 1   
    70   69   76 1   
    71   70   71 1   
    72   70   73 1   
    73   70   77 1   
    74   71   72 2   
    75   71   83 1   
    76   73   74 1   
    77   73   75 1   
    78   73   78 1   
    79   74   80 1   
    80   74   81 1   
    81   74   82 1   
    82   75   79 1   
    83   83   84 1   
    84   83   91 1   
    85   84   85 1   
    86   84   87 1   
    87   84   92 1   
    88   85   86 2   
    89   85  102 1   
    90   87   88 1   
    91   87   89 1   
    92   87   93 1   
    93   88   90 1   
    94   88   94 1   
    95   88   95 1   
    96   89   96 1   
    97   89   97 1   
    98   89   98 1   
    99   90   99 1   
   100   90  100 1   
   101   90  101 1   
   102  102  103 1   
   103  102  110 1   
   104  103  104 1   
   105  103  106 1   
   106  103  111 1   
   107  104  105 2   
   108  104  114 1   
   109  106  107 1   
   110  106  112 1   
   111  106  113 1   
   112  107  108 1   
   113  107  109 1   
   114  114  115 1   
   115  114  125 1   
   116  115  116 1   
   117  115  118 1   
   118  115  126 1   
   119  116  117 2   
   120  116  134 1   
   121  118  119 1   
   122  118  127 1   
   123  118  128 1   
   124  119  120 ar  
   125  119  121 ar  
   126  120  122 ar  
   127  120  129 1   
   128  121  123 ar  
   129  121  130 1   
   130  122  124 ar  
   131  122  131 1   
   132  123  124 ar  
   133  123  132 1   
   134  124  133 1   
   135  134  135 1   
   136  134  140 1   
   137  135  136 1   
   138  135  138 1   
   139  135  141 1   
   140  136  137 2   
   141  136  148 1   
   142  138  139 1   
   143  138  142 1   
   144  138  143 1   
   145  139  140 1   
   146  139  144 1   
   147  139  145 1   
   148  140  146 1   
   149  140  147 1   
   150  148  149 1   
   151  148  157 1   
   152  149  150 1   
   153  149  152 1   
   154  149  158 1   
   155  150  151 2   
   156  150  163 1   
   157  152  153 1   
   158  152  159 1   
   159  152  160 1   
   160  153  154 1   
   161  153  161 1   
   162  153  162 1   
   163  154  155 1   
   164  154  156 1   
   165  163  164 1   
   166  163  168 1   
   167  164  165 1   
   168  164  166 1   
   169  164  167 1   
   170  170  171 1   
   171  170  172 1   
@<TRIPOS>SUBSTRUCTURE
     1 MOL         1 TEMP              0 ****  ****    0 ROOT
