@<TRIPOS>MOLECULE
MOL
  189   185     1     0     0
SMALL
resp


@<TRIPOS>ATOM
      1 C1          0.3670   -2.5570    6.3560 c3        1 MOL     -0.564266
      2 C2          0.9200   -2.3820    4.9140 c         1 MOL      0.562263
      3 O1          0.4560   -1.5600    4.1810 o         1 MOL     -0.453605
      4 H1          0.6910   -1.7180    6.9730 hc        1 MOL      0.154575
      5 H2         -0.7220   -2.5860    6.3270 hc        1 MOL      0.154575
      6 H3          0.7450   -3.4870    6.7810 hc        1 MOL      0.154575
      7 N1          1.7880   -3.2600    4.3900 n         1 MOL     -0.429050
      8 C3          2.4370   -3.1460    3.0750 c3        1 MOL      0.043167
      9 C4          2.6180   -4.4260    2.2640 c         1 MOL      0.459944
     10 O2          3.0210   -5.4550    2.8510 o         1 MOL     -0.580542
     11 C5          3.8720   -2.5160    3.2560 c3        1 MOL     -0.187275
     12 C6          4.5920   -2.0380    1.9980 c         1 MOL      0.761085
     13 O3          3.9670   -1.9810    0.9180 o         1 MOL     -0.691787
     14 O4          5.8220   -1.7220    2.1370 o         1 MOL     -0.691787
     15 H4          2.1060   -4.0100    4.9880 hn        1 MOL      0.283832
     16 H5          1.9040   -2.4220    2.4650 h1        1 MOL      0.011290
     17 H6          4.4940   -3.2260    3.8040 hc        1 MOL      0.032328
     18 H7          3.8370   -1.7230    4.0100 hc        1 MOL      0.032328
     19 N2          2.1810   -4.4550    0.9730 n         1 MOL     -0.067799
     20 C7          2.2500   -5.6670    0.1430 c3        1 MOL     -0.108529
     21 C8          3.2770   -5.4410   -0.9740 c         1 MOL      0.567088
     22 O5          3.3800   -6.3110   -1.7860 o         1 MOL     -0.557032
     23 C9          0.8880   -6.2040   -0.3590 c3        1 MOL      0.299553
     24 C10         0.0760   -5.2320   -1.3140 c3        1 MOL     -0.068406
     25 C11         0.1250   -6.5590    0.8620 c3        1 MOL     -0.339041
     26 C12        -1.0670   -5.8960   -2.1350 c3        1 MOL     -0.316365
     27 H8          1.6310   -3.7260    0.5250 hn        1 MOL      0.109591
     28 H9          2.6410   -6.4890    0.7400 h1        1 MOL      0.068139
     29 H10         1.1290   -7.1290   -0.8800 hc        1 MOL     -0.052861
     30 H11         0.7180   -4.7130   -2.0290 hc        1 MOL      0.091303
     31 H12        -0.3600   -4.5170   -0.6200 hc        1 MOL      0.091303
     32 H13         0.6250   -7.4430    1.2730 hc        1 MOL      0.057702
     33 H14         0.1830   -5.9050    1.7230 hc        1 MOL      0.057702
     34 H15        -0.9120   -6.8470    0.7080 hc        1 MOL      0.057702
     35 H16        -1.6500   -5.0890   -2.5710 hc        1 MOL      0.088287
     36 H17        -0.6040   -6.5060   -2.9140 hc        1 MOL      0.088287
     37 H18        -1.7030   -6.5000   -1.4850 hc        1 MOL      0.088287
     38 N3          4.0390   -4.2710   -1.0760 n         1 MOL     -0.618376
     39 C13         4.6780   -3.9060   -2.3400 c3        1 MOL      0.233068
     40 C14         5.9020   -3.0100   -2.1450 c         1 MOL      0.409661
     41 O6          6.7810   -3.0940   -2.9530 o         1 MOL     -0.566533
     42 C15         3.7360   -3.1650   -3.3130 c3        1 MOL     -0.270171
     43 C16         3.1020   -1.8210   -2.9770 c         1 MOL      0.797549
     44 O7          3.5090   -1.2180   -1.9410 o         1 MOL     -0.706788
     45 O8          2.0770   -1.4810   -3.5420 o         1 MOL     -0.706788
     46 H19         3.9640   -3.5610   -0.3620 hn        1 MOL      0.288924
     47 H20         5.0760   -4.7860   -2.8660 h1        1 MOL      0.048967
     48 H21         2.8780   -3.7890   -3.5570 hc        1 MOL      0.048549
     49 H22         4.2610   -2.9990   -4.2520 hc        1 MOL      0.048549
     50 N4          6.0240   -2.3000   -1.0200 n         1 MOL     -0.114127
     51 C17         7.2780   -1.5710   -0.6850 c3        1 MOL     -0.405364
     52 C18         7.6040   -0.2120   -1.2760 c         1 MOL      0.622993
     53 O9          8.7120    0.2850   -1.0610 o         1 MOL     -0.603972
     54 H23         5.1980   -2.2160   -0.4520 hn        1 MOL      0.121848
     55 H24         8.1190   -2.2370   -0.9160 h1        1 MOL      0.158135
     56 H25         7.2360   -1.4720    0.4020 h1        1 MOL      0.158135
     57 N5          6.6500    0.4600   -1.9720 n         1 MOL     -0.318764
     58 C19         6.7190    1.8040   -2.6450 c3        1 MOL      0.061007
     59 C20         7.0070    3.0030   -1.7230 c         1 MOL      0.421960
     60 O10         7.7140    3.9600   -2.0930 o         1 MOL     -0.585418
     61 C21         5.4330    2.0710   -3.4020 c3        1 MOL     -0.285924
     62 C22         4.0950    2.0230   -2.6540 c         1 MOL      0.756347
     63 O11         4.0730    1.8790   -1.3930 o         1 MOL     -0.706844
     64 O12         3.0340    2.0420   -3.3270 o         1 MOL     -0.706844
     65 H26         5.7440    0.1570   -1.6560 hn        1 MOL      0.172041
     66 H27         7.5250    1.8270   -3.3720 h1        1 MOL      0.082424
     67 H28         5.4480    1.3440   -4.2100 hc        1 MOL      0.078805
     68 H29         5.5990    3.0490   -3.8550 hc        1 MOL      0.078805
     69 N6          6.5900    2.9800   -0.4670 n         1 MOL     -0.136306
     70 C23         6.6820    4.0290    0.5100 c3        1 MOL     -0.144165
     71 C24         5.4010    4.4380    1.2260 c         1 MOL      0.469812
     72 O13         5.5040    5.2800    2.0920 o         1 MOL     -0.592464
     73 H30         6.1640    2.1210   -0.1530 hn        1 MOL      0.177834
     74 H31         7.0360    4.9490    0.0410 h1        1 MOL      0.091651
     75 H32         7.3860    3.7310    1.2850 h1        1 MOL      0.091651
     76 N7          4.2020    4.1280    0.7360 n         1 MOL     -0.182202
     77 C25         2.9550    4.5990    1.2650 c3        1 MOL      0.179091
     78 C26         1.9240    3.4680    1.3910 c         1 MOL      0.434644
     79 O14         1.9160    2.5510    0.5810 o         1 MOL     -0.548039
     80 C27         2.3530    5.6820    0.3630 c3        1 MOL     -0.199851
     81 C28         3.2690    6.8650   -0.0510 c3        1 MOL     -0.124091
     82 C29         2.6310    7.9260   -0.9140 c         1 MOL      0.596144
     83 N8          2.6240    7.9680   -2.2410 n         1 MOL     -0.781179
     84 O15         2.0330    8.8820   -0.3920 o         1 MOL     -0.584903
     85 H33         4.1190    3.3900    0.0440 hn        1 MOL      0.126382
     86 H34         3.0300    4.8710    2.3220 h1        1 MOL     -0.008553
     87 H35         1.4640    6.0090    0.9120 hc        1 MOL      0.090175
     88 H36         2.1490    5.1560   -0.5680 hc        1 MOL      0.090175
     89 H37         4.1490    6.4440   -0.5290 hc        1 MOL      0.078943
     90 H38         3.6030    7.4140    0.8280 hc        1 MOL      0.078943
     91 H39         3.0730    7.3080   -2.8570 hn        1 MOL      0.361504
     92 H40         2.1290    8.7630   -2.6090 hn        1 MOL      0.361504
     93 N9          0.8220    3.5920    2.1670 n         1 MOL     -0.419688
     94 C30        -0.3340    2.6620    2.2570 c3        1 MOL      0.060587
     95 C31        -1.3980    3.0290    1.3340 c         1 MOL      0.449853
     96 O16        -2.1500    3.9580    1.5200 o         1 MOL     -0.563293
     97 C32        -0.7570    2.6020    3.7160 c3        1 MOL     -0.007494
     98 C33        -2.1660    2.0910    3.9990 c3        1 MOL     -0.067059
     99 C34         0.1450    1.7410    4.6450 c3        1 MOL     -0.067059
    100 H41         0.7930    4.4620    2.6890 hn        1 MOL      0.279175
    101 H42        -0.1550    1.6250    1.9530 h1        1 MOL      0.051443
    102 H43        -0.7410    3.6060    4.1460 hc        1 MOL      0.018860
    103 H44        -2.3950    2.0400    5.0550 hc        1 MOL      0.011738
    104 H45        -2.9350    2.7120    3.5520 hc        1 MOL      0.011738
    105 H46        -2.2690    1.1210    3.5090 hc        1 MOL      0.011738
    106 H47         1.2160    1.8850    4.4880 hc        1 MOL      0.011738
    107 H48         0.1310    2.0770    5.6870 hc        1 MOL      0.011738
    108 H49        -0.0980    0.6750    4.6130 hc        1 MOL      0.011738
    109 N10        -1.5910    2.2210    0.2860 n         1 MOL     -0.123937
    110 C35        -2.6900    2.3210   -0.6480 c3        1 MOL      0.042050
    111 C36        -4.0620    2.0140   -0.0820 c         1 MOL      0.380318
    112 O17        -4.2210    1.3130    0.9260 o         1 MOL     -0.381564
    113 C37        -2.2720    1.3820   -1.7360 c3        1 MOL     -0.205612
    114 C38        -3.2320    1.5110   -2.9470 c         1 MOL      0.744739
    115 N11        -3.0980    2.5260   -3.7850 n         1 MOL     -0.841695
    116 O18        -4.1700    0.7130   -3.0560 o         1 MOL     -0.591753
    117 H50        -0.9980    1.4110    0.1890 hn        1 MOL      0.058250
    118 H51        -2.8660    3.3120   -1.0370 h1        1 MOL      0.032126
    119 H52        -2.0720    0.3740   -1.3700 hc        1 MOL      0.096722
    120 H53        -1.3610    1.7570   -2.1980 hc        1 MOL      0.096722
    121 H54        -2.2380    3.0490   -3.7980 hn        1 MOL      0.379631
    122 H55        -3.7250    2.5880   -4.5700 hn        1 MOL      0.379631
    123 N12        -5.1490    2.3560   -0.8010 n         1 MOL     -0.406886
    124 C39        -6.5620    2.0840   -0.4270 c3        1 MOL      0.247575
    125 C40        -6.8280    0.5920   -0.2780 c         1 MOL      0.542418
    126 O19        -7.5900    0.1570    0.5960 o         1 MOL     -0.532175
    127 C41        -7.5160    2.6720   -1.4390 c3        1 MOL     -0.160419
    128 C42        -8.9810    2.3440   -1.2930 ca        1 MOL     -0.062426
    129 C43        -9.6440    2.6140   -0.1080 ca        1 MOL     -0.066274
    130 C44        -9.7030    1.6850   -2.2860 ca        1 MOL     -0.066274
    131 C45       -10.9900    2.2680    0.0770 ca        1 MOL     -0.319074
    132 C46       -11.0710    1.5560   -2.1970 ca        1 MOL     -0.319074
    133 C47       -11.6830    1.7340   -0.9700 ca        1 MOL      0.442504
    134 O20       -13.0210    1.5760   -0.8860 oh        1 MOL     -0.542563
    135 H56        -4.9670    3.1530   -1.3970 hn        1 MOL      0.229846
    136 H57        -6.7850    2.5230    0.5440 h1        1 MOL      0.024665
    137 H58        -7.1970    2.4290   -2.4570 hc        1 MOL      0.057882
    138 H59        -7.3930    3.7490   -1.3290 hc        1 MOL      0.057882
    139 H60        -9.0150    3.0740    0.6360 ha        1 MOL      0.109676
    140 H61        -9.1460    1.4810   -3.1960 ha        1 MOL      0.109676
    141 H62       -11.5580    2.5490    0.9490 ha        1 MOL      0.143966
    142 H63       -11.6080    1.2510   -3.0800 ha        1 MOL      0.143966
    143 H64       -13.3380    0.9520   -1.5390 ho        1 MOL      0.363964
    144 N13        -6.0590   -0.3070   -0.9940 n         1 MOL     -0.300764
    145 C48        -6.0540   -1.7550   -0.9360 c3        1 MOL     -0.286531
    146 C49        -5.3130   -2.2790    0.3070 c         1 MOL      0.554552
    147 O21        -5.5960   -3.3540    0.8190 o         1 MOL     -0.551344
    148 C50        -5.4220   -2.2230   -2.2250 c3        1 MOL      0.456465
    149 C51        -5.7190   -3.7110   -2.4730 c3        1 MOL     -0.410182
    150 C52        -5.0050   -4.2380   -3.7460 c         1 MOL      0.788883
    151 O22        -5.0330   -3.5160   -4.7420 o         1 MOL     -0.759949
    152 O23        -4.4200   -5.3700   -3.7070 o         1 MOL     -0.759949
    153 H65        -5.4970    0.0090   -1.7700 hn        1 MOL      0.203983
    154 H66        -7.0790   -2.1450   -0.9070 h1        1 MOL      0.110567
    155 H67        -4.3460   -2.1300   -2.2910 hc        1 MOL     -0.042482
    156 H68        -5.8290   -1.5930   -3.0080 hc        1 MOL     -0.042482
    157 H69        -6.7880   -3.7990   -2.6770 hc        1 MOL      0.042032
    158 H70        -5.3810   -4.2290   -1.5750 hc        1 MOL      0.042032
    159 N14        -4.4040   -1.4900    0.8970 n         1 MOL     -0.254927
    160 C53        -3.6240   -1.7980    2.1000 c3        1 MOL     -0.109916
    161 C54        -4.2290   -1.1900    3.3830 c         1 MOL      0.421457
    162 O24        -3.9230   -1.5760    4.4890 o         1 MOL     -0.564019
    163 C55        -2.1760   -1.3420    1.9010 c3        1 MOL     -0.068092
    164 C56        -1.3340   -2.1490    0.9190 c3        1 MOL     -0.197244
    165 C57        -0.0230   -1.4470    0.4590 c         1 MOL      0.525197
    166 O25         0.1140   -0.2000    0.6690 o         1 MOL     -0.611186
    167 O26         0.9540   -2.0720   -0.0440 o         1 MOL     -0.611186
    168 H71        -4.3450   -0.5400    0.5530 hn        1 MOL      0.067681
    169 H72        -3.5560   -2.8920    2.1430 h1        1 MOL      0.114780
    170 H73        -1.7160   -1.2050    2.8790 hc        1 MOL      0.135581
    171 H74        -2.2440   -0.3270    1.5110 hc        1 MOL      0.135581
    172 H75        -1.9500   -2.1800    0.0250 hc        1 MOL      0.101695
    173 H76        -1.1300   -3.1860    1.2100 hc        1 MOL      0.101695
    174 N15        -5.1170   -0.2420    3.2960 n         1 MOL     -0.074523
    175 C58        -5.7060    0.4160    4.4610 c3        1 MOL     -0.050187
    176 H77        -5.3540    1.4470    4.5100 h1        1 MOL      0.040449
    177 H78        -6.7920    0.4070    4.3730 h1        1 MOL      0.040449
    178 H79        -5.4090   -0.1120    5.3660 h1        1 MOL      0.040449
    179 H80        -5.2650    0.1640    2.3840 hn        1 MOL      0.091413
    180 Ca1         2.5650    0.0720    0.0330 Ca        1 MOL      1.796156
    181 O27         5.1120    0.6320    0.9230 oh        1 MOL     -0.888402
    182 H81         5.6250    1.0380    1.6110 ho        1 MOL      0.425620
    183 H82         5.2390   -0.3140    1.0570 ho        1 MOL      0.425620
    184 O28         1.2220    0.6730   -2.3100 oh        1 MOL     -0.888402
    185 O29         2.6680    0.2470    2.7500 oh        1 MOL     -0.888402
    186 H83         1.8380    1.3440   -2.5900 ho        1 MOL      0.425620
    187 H84         1.9720   -0.2550    3.1980 ho        1 MOL      0.425620
    188 H85         1.3540   -0.0440   -2.9270 ho        1 MOL      0.425620
    189 H86         3.2490    0.5340    3.4610 ho        1 MOL      0.425620
@<TRIPOS>BOND
     1    1    2 1   
     2    1    4 1   
     3    1    5 1   
     4    1    6 1   
     5    2    3 2   
     6    2    7 1   
     7    7    8 1   
     8    7   15 1   
     9    8    9 1   
    10    8   11 1   
    11    8   16 1   
    12    9   10 2   
    13    9   19 1   
    14   11   12 1   
    15   11   17 1   
    16   11   18 1   
    17   12   13 1   
    18   12   14 1   
    19   19   20 1   
    20   19   27 1   
    21   20   21 1   
    22   20   23 1   
    23   20   28 1   
    24   21   22 2   
    25   21   38 1   
    26   23   24 1   
    27   23   25 1   
    28   23   29 1   
    29   24   26 1   
    30   24   30 1   
    31   24   31 1   
    32   25   32 1   
    33   25   33 1   
    34   25   34 1   
    35   26   35 1   
    36   26   36 1   
    37   26   37 1   
    38   38   39 1   
    39   38   46 1   
    40   39   40 1   
    41   39   42 1   
    42   39   47 1   
    43   40   41 2   
    44   40   50 1   
    45   42   43 1   
    46   42   48 1   
    47   42   49 1   
    48   43   44 1   
    49   43   45 1   
    50   50   51 1   
    51   50   54 1   
    52   51   52 1   
    53   51   55 1   
    54   51   56 1   
    55   52   53 2   
    56   52   57 1   
    57   57   58 1   
    58   57   65 1   
    59   58   59 1   
    60   58   61 1   
    61   58   66 1   
    62   59   60 2   
    63   59   69 1   
    64   61   62 1   
    65   61   67 1   
    66   61   68 1   
    67   62   63 1   
    68   62   64 1   
    69   69   70 1   
    70   69   73 1   
    71   70   71 1   
    72   70   74 1   
    73   70   75 1   
    74   71   72 2   
    75   71   76 1   
    76   76   77 1   
    77   76   85 1   
    78   77   78 1   
    79   77   80 1   
    80   77   86 1   
    81   78   79 2   
    82   78   93 1   
    83   80   81 1   
    84   80   87 1   
    85   80   88 1   
    86   81   82 1   
    87   81   89 1   
    88   81   90 1   
    89   82   83 1   
    90   82   84 2   
    91   83   91 1   
    92   83   92 1   
    93   93   94 1   
    94   93  100 1   
    95   94   95 1   
    96   94   97 1   
    97   94  101 1   
    98   95   96 2   
    99   95  109 1   
   100   97   98 1   
   101   97   99 1   
   102   97  102 1   
   103   98  103 1   
   104   98  104 1   
   105   98  105 1   
   106   99  106 1   
   107   99  107 1   
   108   99  108 1   
   109  109  110 1   
   110  109  117 1   
   111  110  111 1   
   112  110  113 1   
   113  110  118 1   
   114  111  112 2   
   115  111  123 1   
   116  113  114 1   
   117  113  119 1   
   118  113  120 1   
   119  114  115 1   
   120  114  116 2   
   121  115  121 1   
   122  115  122 1   
   123  123  124 1   
   124  123  135 1   
   125  124  125 1   
   126  124  127 1   
   127  124  136 1   
   128  125  126 2   
   129  125  144 1   
   130  127  128 1   
   131  127  137 1   
   132  127  138 1   
   133  128  129 ar  
   134  128  130 ar  
   135  129  131 ar  
   136  129  139 1   
   137  130  132 ar  
   138  130  140 1   
   139  131  133 ar  
   140  131  141 1   
   141  132  133 ar  
   142  132  142 1   
   143  133  134 1   
   144  134  143 1   
   145  144  145 1   
   146  144  153 1   
   147  145  146 1   
   148  145  148 1   
   149  145  154 1   
   150  146  147 2   
   151  146  159 1   
   152  148  149 1   
   153  148  155 1   
   154  148  156 1   
   155  149  150 1   
   156  149  157 1   
   157  149  158 1   
   158  150  151 1   
   159  150  152 1   
   160  159  160 1   
   161  159  168 1   
   162  160  161 1   
   163  160  163 1   
   164  160  169 1   
   165  161  162 2   
   166  161  174 1   
   167  163  164 1   
   168  163  170 1   
   169  163  171 1   
   170  164  165 1   
   171  164  172 1   
   172  164  173 1   
   173  165  166 1   
   174  165  167 1   
   175  174  175 1   
   176  174  179 1   
   177  175  176 1   
   178  175  177 1   
   179  175  178 1   
   180  181  182 1   
   181  181  183 1   
   182  184  186 1   
   183  184  188 1   
   184  185  187 1   
   185  185  189 1   
@<TRIPOS>SUBSTRUCTURE
     1 MOL         1 TEMP              0 ****  ****    0 ROOT
