@<TRIPOS>MOLECULE
MOL
  175   173     1     0     0
SMALL
resp


@<TRIPOS>ATOM
      1 C1          0.2380    4.6230    5.2100 c3        1 MOL     -0.366339
      2 C2         -0.2020    4.4720    3.7150 c         1 MOL      0.717459
      3 O1          0.5630    4.4040    2.7930 o         1 MOL     -0.539436
      4 H1         -0.3900    3.9920    5.8390 hc        1 MOL      0.090835
      5 H2          1.2790    4.3180    5.3160 hc        1 MOL      0.090835
      6 H3          0.1310    5.6630    5.5180 hc        1 MOL      0.090835
      7 N1         -1.5330    4.3580    3.4780 n         1 MOL     -0.649847
      8 C3         -2.1850    3.9910    2.1840 c3        1 MOL      0.262142
      9 C4         -2.3710    5.0220    1.0850 c         1 MOL      0.640065
     10 O2         -2.5500    6.1870    1.4090 o         1 MOL     -0.610466
     11 C5         -3.5570    3.2920    2.4670 c3        1 MOL     -0.499824
     12 C6         -4.1760    2.5740    1.2940 c         1 MOL      0.889878
     13 O3         -5.3430    2.1710    1.2850 o         1 MOL     -0.724023
     14 O4         -3.4200    2.2770    0.3410 o         1 MOL     -0.724023
     15 H4         -2.1880    4.5810    4.2230 hn        1 MOL      0.304718
     16 H5         -1.5610    3.1650    1.8320 h1        1 MOL      0.031102
     17 H6         -4.2570    4.1060    2.6550 hc        1 MOL      0.101748
     18 H7         -3.4390    2.5550    3.2590 hc        1 MOL      0.101748
     19 N2         -2.5090    4.6500   -0.1560 n         1 MOL     -0.750994
     20 C7         -2.9350    5.4830   -1.2730 c3        1 MOL      0.532073
     21 C8         -3.6750    4.7300   -2.3800 c         1 MOL      0.408338
     22 O5         -3.4940    5.0900   -3.5330 o         1 MOL     -0.516183
     23 C9         -1.6990    6.1860   -1.7240 c3        1 MOL     -0.440421
     24 H8         -2.4780    3.6610   -0.3230 hn        1 MOL      0.532925
     25 H9         -3.6560    6.2200   -0.9120 h1        1 MOL     -0.045645
     26 H10        -0.9600    5.4360   -2.0270 hc        1 MOL      0.100898
     27 H11        -2.0390    6.8450   -2.5140 hc        1 MOL      0.100898
     28 H12        -1.3410    6.7290   -0.8460 hc        1 MOL      0.100898
     29 N3         -4.3880    3.5930   -2.1330 n         1 MOL     -0.529818
     30 C10        -5.1420    2.8170   -3.1130 c3        1 MOL      0.292406
     31 C11        -6.4410    2.1580   -2.6400 c         1 MOL      0.278232
     32 O6         -7.3530    1.9180   -3.4600 o         1 MOL     -0.548020
     33 C12        -4.1860    1.7900   -3.7330 c3        1 MOL     -0.369885
     34 C13        -3.3450    1.0800   -2.7190 c         1 MOL      0.638446
     35 O7         -3.9510    0.4870   -1.8190 o         1 MOL     -0.646107
     36 O8         -2.0820    1.1440   -2.6630 o         1 MOL     -0.646107
     37 H13        -4.3350    3.1910   -1.2040 hn        1 MOL      0.209018
     38 H14        -5.4360    3.4630   -3.9480 h1        1 MOL      0.049491
     39 H15        -3.4870    2.4010   -4.3110 hc        1 MOL      0.100386
     40 H16        -4.6900    0.9940   -4.2780 hc        1 MOL      0.100386
     41 N4         -6.5420    1.8930   -1.3640 n         1 MOL     -0.120742
     42 C14        -7.5630    1.0920   -0.6430 c3        1 MOL     -0.251564
     43 C15        -7.3650   -0.4570   -0.7190 c         1 MOL      0.506080
     44 O9         -8.2810   -1.1850   -0.2550 o         1 MOL     -0.606383
     45 H17        -5.7870    2.2640   -0.7950 hn        1 MOL      0.167259
     46 H18        -8.5700    1.3440   -0.9700 h1        1 MOL      0.131780
     47 H19        -7.5110    1.3530    0.4110 h1        1 MOL      0.131780
     48 N5         -6.2780   -0.9680   -1.3530 n         1 MOL     -0.313720
     49 C16        -6.1290   -2.3260   -1.9060 c3        1 MOL      0.059529
     50 C17        -6.0900   -3.5000   -0.9220 c         1 MOL      0.377144
     51 O10        -5.8660   -4.6700   -1.2680 o         1 MOL     -0.497922
     52 C18        -4.9680   -2.3100   -2.9570 c3        1 MOL     -0.227162
     53 C19        -3.5570   -2.4860   -2.3410 c         1 MOL      0.683322
     54 N6         -2.6110   -2.7300   -3.1590 n         1 MOL     -0.644880
     55 O11        -3.2640   -2.3680   -1.1660 o         1 MOL     -0.534838
     56 H20        -5.6240   -0.2630   -1.6710 hn        1 MOL      0.340276
     57 H21        -7.0230   -2.5250   -2.4890 h1        1 MOL      0.084926
     58 H22        -5.1340   -1.4130   -3.5510 hc        1 MOL      0.051474
     59 H23        -5.0180   -3.2050   -3.5790 hc        1 MOL      0.051474
     60 H24        -2.7640   -2.7430   -4.1520 hn        1 MOL      0.319789
     61 H25        -1.6400   -2.7770   -2.9030 hn        1 MOL      0.319789
     62 N7         -6.2620   -3.2080    0.3730 n         1 MOL     -0.223327
     63 C20        -6.3300   -4.1980    1.4620 c3        1 MOL     -0.126589
     64 C21        -4.9390   -4.6220    2.0190 c         1 MOL      0.507257
     65 O12        -4.9160   -5.4940    2.8820 o         1 MOL     -0.551579
     66 H26        -6.4450   -2.2450    0.5890 hn        1 MOL      0.240969
     67 H27        -6.7380   -5.1310    1.0630 h1        1 MOL      0.099908
     68 H28        -7.0120   -3.9430    2.2770 h1        1 MOL      0.099908
     69 N8         -3.7860   -3.9800    1.4920 n         1 MOL     -0.206262
     70 C22        -2.3730   -4.4020    1.7170 c3        1 MOL     -0.135768
     71 C23        -1.4140   -3.2000    1.8460 c         1 MOL      0.488617
     72 O13        -1.6400   -2.1530    1.2100 o         1 MOL     -0.429653
     73 C24        -1.8860   -5.4010    0.6010 c3        1 MOL      0.471446
     74 C25        -2.3890   -6.8130    0.6330 c3        1 MOL     -0.514887
     75 O14        -2.3780   -4.8910   -0.6680 oh        1 MOL     -0.566702
     76 H29        -3.9710   -3.1860    0.9020 hn        1 MOL      0.021753
     77 H30        -2.2590   -5.0080    2.6070 h1        1 MOL      0.071282
     78 H31        -0.8050   -5.4390    0.5270 h1        1 MOL     -0.007663
     79 H32        -2.2680   -3.9370   -0.6590 ho        1 MOL      0.306093
     80 H33        -2.2680   -7.3530    1.5780 hc        1 MOL      0.132838
     81 H34        -3.4420   -6.7400    0.3510 hc        1 MOL      0.132838
     82 H35        -1.7960   -7.4190   -0.0590 hc        1 MOL      0.132838
     83 N9         -0.2780   -3.3880    2.5810 n         1 MOL     -0.511120
     84 C26         0.8320   -2.4440    2.4680 c3        1 MOL      0.096310
     85 C27         1.7290   -2.7970    1.2570 c         1 MOL      0.496915
     86 O15         2.3910   -3.8330    1.2640 o         1 MOL     -0.590439
     87 C28         1.6290   -2.3420    3.8130 c3        1 MOL      0.165373
     88 C29         0.9690   -1.3790    4.8330 c3        1 MOL     -0.065919
     89 C30         3.1200   -2.0350    3.7290 c3        1 MOL     -0.411729
     90 C31         1.5340   -1.3840    6.2710 c3        1 MOL     -0.289314
     91 H36        -0.1760   -4.3210    2.9600 hn        1 MOL      0.278632
     92 H37         0.3540   -1.4790    2.2920 h1        1 MOL     -0.032643
     93 H38         1.5530   -3.3510    4.2170 hc        1 MOL      0.006004
     94 H39        -0.0850   -1.6380    4.8880 hc        1 MOL      0.049272
     95 H40         1.1100   -0.3270    4.5770 hc        1 MOL      0.049272
     96 H41         3.6250   -2.1030    4.6930 hc        1 MOL      0.096644
     97 H42         3.5500   -2.6430    2.9260 hc        1 MOL      0.096644
     98 H43         3.3250   -1.0000    3.4870 hc        1 MOL      0.096644
     99 H44         0.8790   -0.7660    6.8820 hc        1 MOL      0.073752
    100 H45         1.6550   -2.4200    6.5910 hc        1 MOL      0.073752
    101 H46         2.5100   -0.9100    6.3410 hc        1 MOL      0.073752
    102 N10         1.7440   -1.9580    0.2300 n         1 MOL     -0.250860
    103 C32         2.6060   -2.0330   -0.9610 c3        1 MOL     -0.003282
    104 C33         4.0590   -1.4830   -0.6590 c         1 MOL      0.419929
    105 O16         4.3640   -0.8740    0.3370 o         1 MOL     -0.298637
    106 C34         1.8810   -1.2360   -2.0590 c3        1 MOL     -0.172545
    107 C35         0.4130   -1.7950   -2.2770 c         1 MOL      0.689188
    108 O17        -0.3840   -1.3890   -1.4550 o         1 MOL     -0.669446
    109 O18         0.1180   -2.3870   -3.3430 o         1 MOL     -0.669446
    110 H47         1.2510   -1.0850    0.4000 hn        1 MOL      0.257340
    111 H48         2.6670   -3.0930   -1.2230 h1        1 MOL      0.071812
    112 H49         2.4340   -1.6080   -2.9190 hc        1 MOL      0.020075
    113 H50         1.9840   -0.1610   -1.9410 hc        1 MOL      0.020075
    114 N11         5.0080   -1.6750   -1.5980 n         1 MOL     -0.554227
    115 C36         6.4070   -1.3990   -1.5290 c3        1 MOL      0.350730
    116 C37         6.9210   -0.0150   -1.0240 c         1 MOL      0.136664
    117 O19         7.5920    0.0860    0.0040 o         1 MOL     -0.479626
    118 C38         7.1800   -1.9450   -2.7240 c3        1 MOL     -0.214138
    119 C39         8.7160   -1.9690   -2.5590 ca        1 MOL      0.294362
    120 C40         9.5140   -1.3460   -3.5160 ca        1 MOL     -0.304737
    121 C41         9.3430   -2.8270   -1.6610 ca        1 MOL     -0.304737
    122 C42        10.8840   -1.4110   -3.3850 ca        1 MOL      0.039870
    123 C43        10.7160   -2.9300   -1.5560 ca        1 MOL      0.039870
    124 C44        11.4950   -2.2500   -2.4900 ca        1 MOL     -0.247782
    125 H51         4.6660   -2.1510   -2.4250 hn        1 MOL      0.304944
    126 H52         6.5720   -2.0670   -0.6890 h1        1 MOL      0.053396
    127 H53         7.0140   -1.2680   -3.5630 hc        1 MOL      0.049780
    128 H54         6.8140   -2.9240   -3.0230 hc        1 MOL      0.049780
    129 H55         9.1170   -0.8550   -4.3990 ha        1 MOL      0.130561
    130 H56         8.6410   -3.4090   -1.0810 ha        1 MOL      0.130561
    131 H57        11.5190   -0.9600   -4.1400 ha        1 MOL      0.073301
    132 H58        11.1820   -3.6560   -0.9180 ha        1 MOL      0.073301
    133 H59        12.5530   -2.4400   -2.5820 ha        1 MOL      0.119810
    134 N12         6.5220    1.1150   -1.6060 n         1 MOL      0.082041
    135 C45         6.7800    2.4750   -1.0580 c3        1 MOL      0.077906
    136 C46         6.0660    2.7780    0.1970 c         1 MOL      0.324967
    137 O20         6.5340    3.5350    1.0340 o         1 MOL     -0.521325
    138 C47         6.5160    3.4200   -2.1570 c3        1 MOL     -0.253357
    139 C48         5.4980    2.7640   -3.0270 c3        1 MOL      0.187337
    140 C49         5.8940    1.2550   -2.9290 c3        1 MOL     -0.228263
    141 H60         7.8240    2.5720   -0.7740 h1        1 MOL      0.056889
    142 H61         6.0810    4.3250   -1.7360 hc        1 MOL      0.082594
    143 H62         7.4900    3.5110   -2.6390 hc        1 MOL      0.082594
    144 H63         4.4870    2.9540   -2.6680 hc        1 MOL     -0.009678
    145 H64         5.5990    3.2240   -4.0160 hc        1 MOL     -0.009678
    146 H65         5.0190    0.6120   -2.9240 h1        1 MOL      0.063008
    147 H66         6.5950    1.0420   -3.7400 h1        1 MOL      0.063008
    148 N13         4.8820    2.2210    0.4200 n         1 MOL     -0.060907
    149 C50         4.2000    2.3690    1.7510 c3        1 MOL     -0.236743
    150 C51         4.8790    1.6740    2.8990 c         1 MOL      0.470626
    151 O21         4.8700    2.1120    4.0570 o         1 MOL     -0.567990
    152 C52         2.7770    1.8340    1.6350 c3        1 MOL      0.078888
    153 C53         2.0380    2.0770    0.3150 c3        1 MOL     -0.368443
    154 C54         0.6010    1.5700    0.3180 c         1 MOL      0.941484
    155 O22         0.3030    0.4460    0.7890 o         1 MOL     -0.780257
    156 O23        -0.2870    2.2300   -0.2890 o         1 MOL     -0.780257
    157 H67         4.3930    1.7780   -0.3350 hn        1 MOL      0.164763
    158 H68         4.2150    3.4370    1.9890 h1        1 MOL      0.130161
    159 H69         2.2080    2.2470    2.4720 hc        1 MOL      0.017156
    160 H70         2.8710    0.7540    1.7440 hc        1 MOL      0.017156
    161 H71         2.5370    1.5010   -0.4520 hc        1 MOL      0.108846
    162 H72         1.9910    3.1540    0.1610 hc        1 MOL      0.108846
    163 N14         5.5900    0.5780    2.6130 n         1 MOL      0.083327
    164 C55         6.4730   -0.0590    3.5230 c3        1 MOL     -0.209788
    165 H73         7.4180    0.4840    3.5520 h1        1 MOL      0.066827
    166 H74         6.0270   -0.0670    4.5170 h1        1 MOL      0.066827
    167 H75         6.6540   -1.0840    3.1970 h1        1 MOL      0.066827
    168 H76         5.4410    0.1860    1.6980 hn        1 MOL      0.014079
    169 Ca1        -2.1960   -0.0210   -0.1310 Ca        1 MOL      1.676271
    170 O24        -4.4530   -0.5590    1.1710 oh        1 MOL     -0.747033
    171 H77        -5.0080   -1.1050    1.7170 ho        1 MOL      0.362823
    172 H78        -4.8660    0.3120    1.2030 ho        1 MOL      0.362823
    173 O25        -1.8970    0.5690    2.4080 oh        1 MOL     -0.747033
    174 H79        -0.9890    0.8570    2.3570 ho        1 MOL      0.362823
    175 H80        -2.1110    0.6480    3.3460 ho        1 MOL      0.362823
@<TRIPOS>BOND
     1    1    2 1   
     2    1    4 1   
     3    1    5 1   
     4    1    6 1   
     5    2    3 2   
     6    2    7 1   
     7    7    8 1   
     8    7   15 1   
     9    8    9 1   
    10    8   11 1   
    11    8   16 1   
    12    9   10 2   
    13    9   19 1   
    14   11   12 1   
    15   11   17 1   
    16   11   18 1   
    17   12   13 1   
    18   12   14 1   
    19   19   20 1   
    20   19   24 1   
    21   20   21 1   
    22   20   23 1   
    23   20   25 1   
    24   21   22 2   
    25   21   29 1   
    26   23   26 1   
    27   23   27 1   
    28   23   28 1   
    29   29   30 1   
    30   29   37 1   
    31   30   31 1   
    32   30   33 1   
    33   30   38 1   
    34   31   32 2   
    35   31   41 1   
    36   33   34 1   
    37   33   39 1   
    38   33   40 1   
    39   34   35 1   
    40   34   36 1   
    41   41   42 1   
    42   41   45 1   
    43   42   43 1   
    44   42   46 1   
    45   42   47 1   
    46   43   44 2   
    47   43   48 1   
    48   48   49 1   
    49   48   56 1   
    50   49   50 1   
    51   49   52 1   
    52   49   57 1   
    53   50   51 2   
    54   50   62 1   
    55   52   53 1   
    56   52   58 1   
    57   52   59 1   
    58   53   54 1   
    59   53   55 2   
    60   54   60 1   
    61   54   61 1   
    62   62   63 1   
    63   62   66 1   
    64   63   64 1   
    65   63   67 1   
    66   63   68 1   
    67   64   65 2   
    68   64   69 1   
    69   69   70 1   
    70   69   76 1   
    71   70   71 1   
    72   70   73 1   
    73   70   77 1   
    74   71   72 2   
    75   71   83 1   
    76   73   74 1   
    77   73   75 1   
    78   73   78 1   
    79   74   80 1   
    80   74   81 1   
    81   74   82 1   
    82   75   79 1   
    83   83   84 1   
    84   83   91 1   
    85   84   85 1   
    86   84   87 1   
    87   84   92 1   
    88   85   86 2   
    89   85  102 1   
    90   87   88 1   
    91   87   89 1   
    92   87   93 1   
    93   88   90 1   
    94   88   94 1   
    95   88   95 1   
    96   89   96 1   
    97   89   97 1   
    98   89   98 1   
    99   90   99 1   
   100   90  100 1   
   101   90  101 1   
   102  102  103 1   
   103  102  110 1   
   104  103  104 1   
   105  103  106 1   
   106  103  111 1   
   107  104  105 2   
   108  104  114 1   
   109  106  107 1   
   110  106  112 1   
   111  106  113 1   
   112  107  108 1   
   113  107  109 1   
   114  114  115 1   
   115  114  125 1   
   116  115  116 1   
   117  115  118 1   
   118  115  126 1   
   119  116  117 2   
   120  116  134 1   
   121  118  119 1   
   122  118  127 1   
   123  118  128 1   
   124  119  120 ar  
   125  119  121 ar  
   126  120  122 ar  
   127  120  129 1   
   128  121  123 ar  
   129  121  130 1   
   130  122  124 ar  
   131  122  131 1   
   132  123  124 ar  
   133  123  132 1   
   134  124  133 1   
   135  134  135 1   
   136  134  140 1   
   137  135  136 1   
   138  135  138 1   
   139  135  141 1   
   140  136  137 2   
   141  136  148 1   
   142  138  139 1   
   143  138  142 1   
   144  138  143 1   
   145  139  140 1   
   146  139  144 1   
   147  139  145 1   
   148  140  146 1   
   149  140  147 1   
   150  148  149 1   
   151  148  157 1   
   152  149  150 1   
   153  149  152 1   
   154  149  158 1   
   155  150  151 2   
   156  150  163 1   
   157  152  153 1   
   158  152  159 1   
   159  152  160 1   
   160  153  154 1   
   161  153  161 1   
   162  153  162 1   
   163  154  155 1   
   164  154  156 1   
   165  163  164 1   
   166  163  168 1   
   167  164  165 1   
   168  164  166 1   
   169  164  167 1   
   170  170  171 1   
   171  170  172 1   
   172  173  174 1   
   173  173  175 1   
@<TRIPOS>SUBSTRUCTURE
     1 MOL         1 TEMP              0 ****  ****    0 ROOT
