@<TRIPOS>MOLECULE
MOL
  176   174     1     0     0
SMALL
resp


@<TRIPOS>ATOM
      1 C1          3.9380   -5.1110    4.7600 c3        1 MOL     -0.324942
      2 C2          3.5730   -4.4870    3.4230 c         1 MOL      0.687162
      3 O1          3.2410   -5.2370    2.5180 o         1 MOL     -0.585343
      4 H1          4.8920   -5.6320    4.6700 hc        1 MOL      0.080106
      5 H2          4.0220   -4.3300    5.5160 hc        1 MOL      0.080106
      6 H3          3.1640   -5.8190    5.0550 hc        1 MOL      0.080106
      7 N1          3.5530   -3.1830    3.2740 n         1 MOL     -0.545264
      8 C3          3.3110   -2.4090    2.0790 c3        1 MOL      0.339313
      9 C4          4.6150   -2.1810    1.2950 c         1 MOL      0.461877
     10 O2          5.2180   -1.0900    1.1660 o         1 MOL     -0.476310
     11 C5          2.5090   -1.1890    2.4040 c3        1 MOL     -0.258218
     12 C6          2.2340   -0.4680    1.0960 c         1 MOL      0.850985
     13 O3          1.6330   -1.1010    0.2210 o         1 MOL     -0.796069
     14 O4          2.4830    0.7260    0.8930 o         1 MOL     -0.796069
     15 H4          3.6940   -2.8030    4.2010 hn        1 MOL      0.278312
     16 H5          2.6290   -3.0280    1.4790 h1        1 MOL      0.028481
     17 H6          3.1980   -0.5600    2.9740 hc        1 MOL      0.041184
     18 H7          1.6210   -1.3920    3.0070 hc        1 MOL      0.041184
     19 N2          5.1620   -3.2790    0.6880 n         1 MOL     -0.592607
     20 C7          6.5480   -3.2860    0.1770 c3        1 MOL      0.078758
     21 C8          6.8750   -2.4400   -1.0550 c         1 MOL      0.329488
     22 O5          8.0680   -2.2910   -1.3500 o         1 MOL     -0.501971
     23 C9          6.7970   -4.7530   -0.2540 c3        1 MOL     -0.223957
     24 C10         7.0210   -5.7930    0.8870 c3        1 MOL      0.118629
     25 C11         7.1770   -7.1500    0.3610 c3        1 MOL      0.108638
     26 C12         7.4240   -8.0680    1.4710 c3        1 MOL      0.084738
     27 N3          7.2880   -9.5050    1.0090 n4        1 MOL     -0.420679
     28 H8          4.7800   -4.1990    0.8600 hn        1 MOL      0.324330
     29 H9          7.2500   -2.9730    0.9450 h1        1 MOL      0.117455
     30 H10         7.7500   -4.7970   -0.7780 hc        1 MOL      0.092243
     31 H11         5.9890   -5.1330   -0.8920 hc        1 MOL      0.092243
     32 H12         6.1350   -5.7710    1.5290 hc        1 MOL     -0.030942
     33 H13         7.9380   -5.6040    1.4570 hc        1 MOL     -0.030942
     34 H14         7.9270   -7.1810   -0.4240 hc        1 MOL     -0.005991
     35 H15         6.2350   -7.4520   -0.0910 hc        1 MOL     -0.005991
     36 H16         6.6430   -7.8480    2.2000 hx        1 MOL      0.062211
     37 H17         8.4140   -7.9850    1.9160 hx        1 MOL      0.062211
     38 H18         6.4390   -9.8040    0.5540 hn        1 MOL      0.341056
     39 H19         8.1160   -9.6220    0.4490 hn        1 MOL      0.341056
     40 H20         7.4180  -10.0630    1.8460 hn        1 MOL      0.341056
     41 N4          5.8420   -1.7890   -1.7020 n         1 MOL     -0.248689
     42 C13         6.0630   -0.7530   -2.7270 c3        1 MOL      0.003516
     43 C14         6.6160    0.6180   -2.1660 c         1 MOL      0.422122
     44 O6          7.1920    1.4370   -2.9270 o         1 MOL     -0.558148
     45 C15         4.8350   -0.4510   -3.6460 c3        1 MOL     -0.302961
     46 C16         3.5870   -0.0640   -2.8740 c         1 MOL      0.681732
     47 O7          3.5740    0.9170   -2.1130 o         1 MOL     -0.703051
     48 O8          2.5760   -0.7890   -2.8280 o         1 MOL     -0.703051
     49 H21         4.9440   -1.9850   -1.2830 hn        1 MOL      0.293188
     50 H22         6.8800   -1.2470   -3.2510 h1        1 MOL      0.110465
     51 H23         4.5950   -1.3840   -4.1580 hc        1 MOL      0.089276
     52 H24         5.0520    0.2990   -4.4080 hc        1 MOL      0.089276
     53 N5          6.4720    0.8300   -0.9020 n         1 MOL     -0.168269
     54 C17         6.9420    2.0240   -0.1200 c3        1 MOL     -0.282455
     55 C18         6.0650    3.2450   -0.2630 c         1 MOL      0.534536
     56 O9          6.5410    4.3030    0.1790 o         1 MOL     -0.581781
     57 H25         5.9230    0.1540   -0.3940 hn        1 MOL      0.229156
     58 H26         7.9620    2.2570   -0.4370 h1        1 MOL      0.148163
     59 H27         7.1250    1.8510    0.9360 h1        1 MOL      0.148163
     60 N6          4.9230    3.2150   -0.9530 n         1 MOL     -0.308678
     61 C19         4.1690    4.4460   -1.3940 c3        1 MOL      0.066255
     62 C20         3.4770    5.2130   -0.2110 c         1 MOL      0.397902
     63 O10         3.3330    6.4100   -0.3380 o         1 MOL     -0.493569
     64 C21         3.3760    4.3020   -2.6680 c3        1 MOL     -0.112939
     65 C22         1.9760    3.7370   -2.4340 c         1 MOL      0.648373
     66 N7          1.0880    3.9640   -3.3220 n         1 MOL     -0.635717
     67 O11         1.5990    3.2060   -1.3520 o         1 MOL     -0.664992
     68 H28         4.6080    2.3220   -1.2970 hn        1 MOL      0.268470
     69 H29         4.9530    5.1670   -1.6060 h1        1 MOL      0.093822
     70 H30         3.7900    3.5940   -3.3880 hc        1 MOL      0.051603
     71 H31         3.2620    5.3120   -3.0640 hc        1 MOL      0.051603
     72 H32         1.3590    4.2430   -4.2550 hn        1 MOL      0.318449
     73 H33         0.1870    3.5210   -3.2200 hn        1 MOL      0.318449
     74 N8          3.2470    4.5370    0.9180 n         1 MOL     -0.118472
     75 C23         2.7260    5.0780    2.1670 c3        1 MOL     -0.308167
     76 C24         1.1830    5.0930    2.3190 c         1 MOL      0.481434
     77 O12         0.5490    5.7090    3.1460 o         1 MOL     -0.498609
     78 H34         3.5600    3.5850    0.9890 hn        1 MOL      0.211390
     79 H35         3.0750    6.0990    2.2330 h1        1 MOL      0.137963
     80 H36         3.2350    4.6350    3.0260 h1        1 MOL      0.137963
     81 N9          0.5430    4.3570    1.3480 n         1 MOL     -0.118741
     82 C25        -0.8830    4.0830    1.3220 c3        1 MOL     -0.080483
     83 C26        -1.2550    2.5570    1.1170 c         1 MOL      0.429583
     84 O13        -0.6150    1.7590    0.3940 o         1 MOL     -0.595760
     85 C27        -1.3670    4.8970    0.1250 c3        1 MOL     -0.019144
     86 C28        -1.5560    6.3340    0.5160 ca        1 MOL     -0.033317
     87 C29        -0.6690    7.3540    0.3990 ca        1 MOL     -0.084677
     88 C30        -2.7650    6.6190    1.1240 ca        1 MOL     -0.084677
     89 C31        -0.9810    8.7210    0.8110 ca        1 MOL     -0.311723
     90 C32        -3.1060    7.9950    1.5550 ca        1 MOL     -0.311723
     91 C33        -2.2140    9.0480    1.3580 ca        1 MOL      0.380380
     92 O14        -2.6020   10.3560    1.6050 oh        1 MOL     -0.465733
     93 H37         1.0800    3.8380    0.6750 hn        1 MOL      0.166105
     94 H38        -1.3710    4.3880    2.2470 h1        1 MOL      0.079817
     95 H39        -2.3330    4.4540   -0.1250 hc        1 MOL      0.034807
     96 H40        -0.7330    4.7960   -0.7550 hc        1 MOL      0.034807
     97 H41         0.3050    7.0960    0.0090 ha        1 MOL      0.109651
     98 H42        -3.4630    5.8270    1.3570 ha        1 MOL      0.109651
     99 H43        -0.2280    9.4930    0.7380 ha        1 MOL      0.155564
    100 H44        -4.0920    8.1830    1.9510 ha        1 MOL      0.155564
    101 H45        -3.5120   10.3120    1.9180 ho        1 MOL      0.322054
    102 N10        -2.3910    2.1310    1.7440 n         1 MOL     -0.179140
    103 C34        -3.1410    0.9240    1.4390 c3        1 MOL     -0.354913
    104 C35        -4.6420    1.2180    1.0990 c         1 MOL      0.588016
    105 O15        -5.3550    1.8670    1.8850 o         1 MOL     -0.554773
    106 C36        -3.0690   -0.1660    2.5160 c3        1 MOL      0.053557
    107 C37        -3.4030    0.3570    3.9990 c3        1 MOL      0.039641
    108 C38        -1.6560   -0.7070    2.4400 c3        1 MOL     -0.775468
    109 C39        -2.9910   -0.5160    5.1680 c3        1 MOL     -0.107145
    110 H46        -2.7590    2.8370    2.3810 hn        1 MOL      0.244695
    111 H47        -2.7100    0.5170    0.5240 h1        1 MOL      0.351935
    112 H48        -3.7160   -1.0120    2.3010 hc        1 MOL      0.075068
    113 H49        -4.4940    0.3940    4.0520 hc        1 MOL      0.011388
    114 H50        -2.9690    1.3470    4.0980 hc        1 MOL      0.011388
    115 H51        -0.9650    0.0570    2.7990 hc        1 MOL      0.222338
    116 H52        -1.5390   -1.5950    3.0570 hc        1 MOL      0.222338
    117 H53        -1.3820   -1.0010    1.4190 hc        1 MOL      0.222338
    118 H54        -1.9620   -0.2660    5.4200 hc        1 MOL      0.027568
    119 H55        -3.5810   -0.3290    6.0610 hc        1 MOL      0.027568
    120 H56        -3.1260   -1.5590    4.9110 hc        1 MOL      0.027568
    121 N11        -5.1380    0.8180   -0.0940 n         1 MOL     -0.391369
    122 C40        -6.5310    0.6930   -0.4610 c3        1 MOL      0.045057
    123 C41        -7.1070   -0.6620   -0.0200 c         1 MOL      0.467790
    124 O16        -6.4450   -1.3970    0.7440 o         1 MOL     -0.320565
    125 C42        -6.6270    0.8700   -1.9830 c3        1 MOL     -0.260222
    126 O17        -5.9940   -0.2380   -2.5750 oh        1 MOL     -0.478637
    127 H57        -4.5170    0.3320   -0.7260 hn        1 MOL      0.237440
    128 H58        -7.1980    1.4030    0.0480 h1        1 MOL      0.095877
    129 H59        -6.2870    1.8430   -2.3210 h1        1 MOL      0.140439
    130 H60        -7.6470    1.0030   -2.3370 h1        1 MOL      0.140439
    131 H61        -5.9880   -0.0100   -3.5070 ho        1 MOL      0.401374
    132 N12        -8.3620   -0.9470   -0.2720 n         1 MOL     -0.505366
    133 C43        -9.0290   -2.1510    0.2250 c3        1 MOL      0.212138
    134 C44        -8.4190   -3.3940   -0.4340 c         1 MOL      0.386768
    135 O18        -8.0720   -4.3170    0.2850 o         1 MOL     -0.467344
    136 C45       -10.5500   -2.0830   -0.0610 c3        1 MOL     -0.190410
    137 H62        -8.8950   -0.3280   -0.8730 hn        1 MOL      0.284756
    138 H63        -8.9990   -2.2120    1.3120 h1        1 MOL      0.071277
    139 H64       -11.0930   -2.6500    0.7060 hc        1 MOL      0.057314
    140 H65       -10.9400   -1.0680   -0.0130 hc        1 MOL      0.057314
    141 H66       -10.8320   -2.3960   -1.0700 hc        1 MOL      0.057314
    142 N13        -8.1500   -3.3340   -1.7700 n         1 MOL     -0.403599
    143 C46        -7.4370   -4.3790   -2.4360 c3        1 MOL      0.206443
    144 C47        -5.9880   -4.5770   -1.8220 c         1 MOL      0.313235
    145 O19        -5.5620   -5.7000   -1.5120 o         1 MOL     -0.491263
    146 C48        -7.4510   -4.1480   -3.9780 c3        1 MOL     -0.366925
    147 H67        -8.4890   -2.5670   -2.3320 hn        1 MOL      0.262909
    148 H68        -7.9060   -5.3480   -2.2590 h1        1 MOL      0.049694
    149 H69        -6.8040   -3.2750   -4.0500 hc        1 MOL      0.098677
    150 H70        -6.9030   -4.9680   -4.4350 hc        1 MOL      0.098677
    151 H71        -8.4700   -4.0320   -4.3510 hc        1 MOL      0.098677
    152 N14        -5.2680   -3.4630   -1.6010 n         1 MOL     -0.003199
    153 C49        -4.0200   -3.5860   -0.9150 c3        1 MOL     -0.282801
    154 C50        -4.1700   -4.2290    0.5090 c         1 MOL      0.536161
    155 O20        -3.3150   -5.0170    0.8770 o         1 MOL     -0.538063
    156 C51        -3.2040   -2.3430   -0.8530 c3        1 MOL      0.026228
    157 C52        -2.9280   -1.7790   -2.2520 c3        1 MOL     -0.155487
    158 C53        -1.7830   -0.7800   -2.2400 c         1 MOL      0.724164
    159 O21        -0.6360   -1.2980   -2.3170 o         1 MOL     -0.735902
    160 O22        -1.9410    0.4290   -1.9430 o         1 MOL     -0.735902
    161 H72        -5.7020   -2.6190   -1.9470 hn        1 MOL      0.133485
    162 H73        -3.4430   -4.2350   -1.5730 h1        1 MOL      0.139899
    163 H74        -2.3350   -2.5110   -0.2180 hc        1 MOL      0.055648
    164 H75        -3.8330   -1.5800   -0.3890 hc        1 MOL      0.055648
    165 H76        -3.7770   -1.3280   -2.7720 hc        1 MOL      0.007596
    166 H77        -2.7510   -2.5790   -2.9610 hc        1 MOL      0.007596
    167 N15        -5.1310   -3.6590    1.3840 n         1 MOL      0.005647
    168 C54        -5.3770   -4.0680    2.7670 c3        1 MOL     -0.408220
    169 H78        -4.4980   -4.5820    3.1550 h1        1 MOL      0.130422
    170 H79        -5.5820   -3.1880    3.3760 h1        1 MOL      0.130422
    171 H80        -6.2350   -4.7410    2.8000 h1        1 MOL      0.130422
    172 H81        -5.6280   -2.8470    1.0410 hn        1 MOL     -0.000340
    173 Ca1         0.9170    0.6280   -1.4110 Ca        1 MOL      1.745538
    174 O23         0.3280    1.0460   -4.0370 oh        1 MOL     -0.821624
    175 H82         1.0230    1.3250   -4.6390 ho        1 MOL      0.403716
    176 H83        -0.2480    0.5160   -4.5840 ho        1 MOL      0.403716
@<TRIPOS>BOND
     1    1    2 1   
     2    1    4 1   
     3    1    5 1   
     4    1    6 1   
     5    2    3 2   
     6    2    7 1   
     7    7    8 1   
     8    7   15 1   
     9    8    9 1   
    10    8   11 1   
    11    8   16 1   
    12    9   10 2   
    13    9   19 1   
    14   11   12 1   
    15   11   17 1   
    16   11   18 1   
    17   12   13 1   
    18   12   14 1   
    19   19   20 1   
    20   19   28 1   
    21   20   21 1   
    22   20   23 1   
    23   20   29 1   
    24   21   22 2   
    25   21   41 1   
    26   23   24 1   
    27   23   30 1   
    28   23   31 1   
    29   24   25 1   
    30   24   32 1   
    31   24   33 1   
    32   25   26 1   
    33   25   34 1   
    34   25   35 1   
    35   26   27 1   
    36   26   36 1   
    37   26   37 1   
    38   27   38 1   
    39   27   39 1   
    40   27   40 1   
    41   41   42 1   
    42   41   49 1   
    43   42   43 1   
    44   42   45 1   
    45   42   50 1   
    46   43   44 2   
    47   43   53 1   
    48   45   46 1   
    49   45   51 1   
    50   45   52 1   
    51   46   47 1   
    52   46   48 1   
    53   53   54 1   
    54   53   57 1   
    55   54   55 1   
    56   54   58 1   
    57   54   59 1   
    58   55   56 2   
    59   55   60 1   
    60   60   61 1   
    61   60   68 1   
    62   61   62 1   
    63   61   64 1   
    64   61   69 1   
    65   62   63 2   
    66   62   74 1   
    67   64   65 1   
    68   64   70 1   
    69   64   71 1   
    70   65   66 1   
    71   65   67 2   
    72   66   72 1   
    73   66   73 1   
    74   74   75 1   
    75   74   78 1   
    76   75   76 1   
    77   75   79 1   
    78   75   80 1   
    79   76   77 2   
    80   76   81 1   
    81   81   82 1   
    82   81   93 1   
    83   82   83 1   
    84   82   85 1   
    85   82   94 1   
    86   83   84 2   
    87   83  102 1   
    88   85   86 1   
    89   85   95 1   
    90   85   96 1   
    91   86   87 ar  
    92   86   88 ar  
    93   87   89 ar  
    94   87   97 1   
    95   88   90 ar  
    96   88   98 1   
    97   89   91 ar  
    98   89   99 1   
    99   90   91 ar  
   100   90  100 1   
   101   91   92 1   
   102   92  101 1   
   103  102  103 1   
   104  102  110 1   
   105  103  104 1   
   106  103  106 1   
   107  103  111 1   
   108  104  105 2   
   109  104  121 1   
   110  106  107 1   
   111  106  108 1   
   112  106  112 1   
   113  107  109 1   
   114  107  113 1   
   115  107  114 1   
   116  108  115 1   
   117  108  116 1   
   118  108  117 1   
   119  109  118 1   
   120  109  119 1   
   121  109  120 1   
   122  121  122 1   
   123  121  127 1   
   124  122  123 1   
   125  122  125 1   
   126  122  128 1   
   127  123  124 2   
   128  123  132 1   
   129  125  126 1   
   130  125  129 1   
   131  125  130 1   
   132  126  131 1   
   133  132  133 1   
   134  132  137 1   
   135  133  134 1   
   136  133  136 1   
   137  133  138 1   
   138  134  135 2   
   139  134  142 1   
   140  136  139 1   
   141  136  140 1   
   142  136  141 1   
   143  142  143 1   
   144  142  147 1   
   145  143  144 1   
   146  143  146 1   
   147  143  148 1   
   148  144  145 2   
   149  144  152 1   
   150  146  149 1   
   151  146  150 1   
   152  146  151 1   
   153  152  153 1   
   154  152  161 1   
   155  153  154 1   
   156  153  156 1   
   157  153  162 1   
   158  154  155 2   
   159  154  167 1   
   160  156  157 1   
   161  156  163 1   
   162  156  164 1   
   163  157  158 1   
   164  157  165 1   
   165  157  166 1   
   166  158  159 1   
   167  158  160 1   
   168  167  168 1   
   169  167  172 1   
   170  168  169 1   
   171  168  170 1   
   172  168  171 1   
   173  174  175 1   
   174  174  176 1   
@<TRIPOS>SUBSTRUCTURE
     1 MOL         1 TEMP              0 ****  ****    0 ROOT
