@<TRIPOS>MOLECULE
MOL
  189   185     1     0     0
SMALL
resp


@<TRIPOS>ATOM
      1 C1          0.8100   -2.1570    6.5330 c3        1 MOL     -0.426639
      2 C2          1.1420   -2.2470    5.0280 c         1 MOL      0.698347
      3 O1          0.5310   -1.5230    4.2640 o         1 MOL     -0.580973
      4 H1         -0.1750   -2.5860    6.7120 hc        1 MOL      0.110247
      5 H2          1.5560   -2.7080    7.1040 hc        1 MOL      0.110247
      6 H3          0.8130   -1.1120    6.8430 hc        1 MOL      0.110247
      7 N1          2.0310   -3.1150    4.5500 n         1 MOL     -0.609793
      8 C3          2.5460   -3.1210    3.1720 c3        1 MOL      0.474540
      9 C4          2.4830   -4.5110    2.4720 c         1 MOL      0.331288
     10 O2          2.8410   -5.5290    3.0690 o         1 MOL     -0.572764
     11 C5          3.9820   -2.5910    3.2020 c3        1 MOL     -0.460459
     12 C6          4.6680   -2.6350    1.8330 c         1 MOL      0.851995
     13 O3          5.7940   -3.1270    1.7870 o         1 MOL     -0.653161
     14 O4          4.0560   -2.1810    0.8250 o         1 MOL     -0.653161
     15 H4          2.4670   -3.6700    5.2700 hn        1 MOL      0.307407
     16 H5          1.9050   -2.4880    2.5520 h1        1 MOL     -0.039535
     17 H6          4.5030   -3.2740    3.8620 hc        1 MOL      0.068224
     18 H7          4.0680   -1.5910    3.6310 hc        1 MOL      0.068224
     19 N2          2.3610   -4.4510    1.1760 n         1 MOL      0.040059
     20 C7          2.3970   -5.5710    0.2040 c3        1 MOL     -0.092192
     21 C8          3.0560   -5.2620   -1.2110 c         1 MOL      0.329572
     22 O5          2.9590   -6.0720   -2.1740 o         1 MOL     -0.540050
     23 C9          1.0100   -6.2600    0.0280 c3        1 MOL      0.079544
     24 C10        -0.1250   -5.3470   -0.4920 c3        1 MOL      0.094066
     25 C11         0.5190   -6.9320    1.2810 c3        1 MOL     -0.237308
     26 C12         0.0370   -4.7880   -1.9310 c3        1 MOL     -0.171914
     27 H8          2.0820   -3.5650    0.7850 hn        1 MOL     -0.010343
     28 H9          3.1800   -6.2650    0.5000 h1        1 MOL      0.106037
     29 H10         1.0980   -6.9940   -0.7730 hc        1 MOL      0.027773
     30 H11        -0.5160   -4.5470    0.1310 hc        1 MOL     -0.016747
     31 H12        -0.9190   -6.0880   -0.5670 hc        1 MOL     -0.016747
     32 H13         1.2630   -7.6700    1.6040 hc        1 MOL      0.048937
     33 H14         0.3550   -6.2720    2.1330 hc        1 MOL      0.048937
     34 H15        -0.3800   -7.5140    1.1220 hc        1 MOL      0.048937
     35 H16         0.4780   -5.5520   -2.5810 hc        1 MOL      0.048999
     36 H17        -0.9380   -4.5870   -2.3550 hc        1 MOL      0.048999
     37 H18         0.7270   -3.9380   -1.9910 hc        1 MOL      0.048999
     38 N3          3.5260   -4.0320   -1.4630 n         1 MOL     -0.087221
     39 C13         4.3070   -3.7770   -2.6530 c3        1 MOL      0.037815
     40 C14         5.6980   -3.1570   -2.4090 c         1 MOL      0.366019
     41 O6          6.4150   -2.9180   -3.3870 o         1 MOL     -0.549338
     42 C15         3.4290   -3.0860   -3.6710 c3        1 MOL      0.006376
     43 C16         2.8990   -1.7110   -3.3440 c         1 MOL      0.702917
     44 O7          3.0730   -1.1890   -2.2070 o         1 MOL     -0.695709
     45 O8          2.4170   -1.1160   -4.3520 o         1 MOL     -0.695709
     46 H19         3.5490   -3.2970   -0.7650 hn        1 MOL      0.023262
     47 H20         4.5320   -4.6960   -3.1820 h1        1 MOL      0.070637
     48 H21         2.5570   -3.7180   -3.8200 hc        1 MOL     -0.006383
     49 H22         4.0680   -3.1020   -4.5610 hc        1 MOL     -0.006383
     50 N4          6.0160   -2.7730   -1.1780 n         1 MOL     -0.138177
     51 C17         7.2800   -2.1510   -0.8190 c3        1 MOL     -0.276908
     52 C18         7.4790   -0.7540   -1.0730 c         1 MOL      0.582003
     53 O9          8.5820   -0.2690   -0.7530 o         1 MOL     -0.631359
     54 H23         5.3580   -2.8900   -0.4260 hn        1 MOL      0.110276
     55 H24         7.9800   -2.7070   -1.4530 h1        1 MOL      0.129212
     56 H25         7.4060   -2.4400    0.2270 h1        1 MOL      0.129212
     57 N5          6.6130    0.0240   -1.7770 n         1 MOL     -0.199849
     58 C19         6.8140    1.3820   -2.3050 c3        1 MOL     -0.048450
     59 C20         7.0300    2.5120   -1.2500 c         1 MOL      0.491716
     60 O10         7.4560    3.6110   -1.5910 o         1 MOL     -0.555058
     61 C21         5.6030    1.8340   -3.1360 c3        1 MOL     -0.144609
     62 C22         4.2390    2.0320   -2.4890 c         1 MOL      0.744527
     63 O11         4.0530    1.6620   -1.2950 o         1 MOL     -0.668456
     64 O12         3.3810    2.5680   -3.1780 o         1 MOL     -0.668456
     65 H26         5.7520   -0.4770   -1.9560 hn        1 MOL      0.165619
     66 H27         7.6510    1.3740   -3.0020 h1        1 MOL      0.091770
     67 H28         5.4280    1.2120   -4.0140 hc        1 MOL      0.043541
     68 H29         5.8730    2.8130   -3.5310 hc        1 MOL      0.043541
     69 N6          6.8510    2.2940    0.0630 n         1 MOL     -0.304226
     70 C23         6.9360    3.3540    1.0680 c3        1 MOL     -0.159821
     71 C24         5.6340    4.2360    1.3080 c         1 MOL      0.438015
     72 O13         5.8260    5.3190    1.8170 o         1 MOL     -0.571616
     73 H30         6.5810    1.3490    0.2890 hn        1 MOL      0.235021
     74 H31         7.7210    4.0510    0.7770 h1        1 MOL      0.109639
     75 H32         7.2610    3.0450    2.0610 h1        1 MOL      0.109639
     76 N7          4.4530    3.8750    0.8670 n         1 MOL     -0.150195
     77 C25         3.1740    4.6000    1.0730 c3        1 MOL     -0.130572
     78 C26         2.0970    3.6080    1.3760 c         1 MOL      0.443085
     79 O14         2.1980    2.4680    0.9980 o         1 MOL     -0.426629
     80 C27         2.8180    5.4040   -0.2240 c3        1 MOL      0.127217
     81 C28         3.9230    6.3570   -0.7400 c3        1 MOL     -0.402916
     82 C29         3.3760    7.5060   -1.6600 c         1 MOL      0.636308
     83 N8          3.4370    7.4210   -2.9390 n         1 MOL     -0.709414
     84 O15         2.8340    8.4970   -1.2150 o         1 MOL     -0.574216
     85 H33         4.3890    3.0450    0.2840 hn        1 MOL      0.150324
     86 H34         3.3960    5.3520    1.8360 h1        1 MOL      0.083469
     87 H35         1.9570    6.0650   -0.0830 hc        1 MOL      0.052119
     88 H36         2.6410    4.6430   -0.9770 hc        1 MOL      0.052119
     89 H37         4.7080    5.7540   -1.2110 hc        1 MOL      0.137049
     90 H38         4.3690    6.8110    0.1390 hc        1 MOL      0.137049
     91 H39         3.6940    6.5890   -3.4480 hn        1 MOL      0.332948
     92 H40         3.4700    8.2470   -3.5110 hn        1 MOL      0.332948
     93 N9          0.9160    4.0400    1.8780 n         1 MOL     -0.504817
     94 C30        -0.2980    3.1930    1.9320 c3        1 MOL      0.218965
     95 C31        -1.1840    3.6020    0.7420 c         1 MOL      0.332608
     96 O16        -1.4060    4.7780    0.4530 o         1 MOL     -0.546446
     97 C32        -0.9430    3.4130    3.2970 c3        1 MOL      0.095946
     98 C33        -2.4430    3.1430    3.3070 c3        1 MOL     -0.252710
     99 C34        -0.1250    2.4910    4.2760 c3        1 MOL     -0.252710
    100 H41         0.7000    5.0040    2.0730 hn        1 MOL      0.282157
    101 H42         0.0140    2.1590    1.8380 h1        1 MOL      0.039013
    102 H43        -0.8990    4.4380    3.6860 hc        1 MOL      0.016353
    103 H44        -2.7650    2.1730    2.9330 hc        1 MOL      0.057843
    104 H45        -2.9360    3.1750    4.2770 hc        1 MOL      0.057843
    105 H46        -2.9410    3.9390    2.7470 hc        1 MOL      0.057843
    106 H47         0.9400    2.7200    4.1900 hc        1 MOL      0.057843
    107 H48        -0.4470    2.4870    5.3190 hc        1 MOL      0.057843
    108 H49        -0.2680    1.4350    4.0290 hc        1 MOL      0.057843
    109 N10        -1.7110    2.5000    0.0990 n         1 MOL     -0.045432
    110 C35        -2.6960    2.5950   -1.0810 c3        1 MOL      0.063298
    111 C36        -4.0420    2.0830   -0.5420 c         1 MOL      0.343228
    112 O17        -4.0800    1.6280    0.6270 o         1 MOL     -0.396779
    113 C37        -2.1760    1.8240   -2.3030 c3        1 MOL     -0.297592
    114 C38        -2.3960    0.3780   -2.3040 c         1 MOL      0.712482
    115 N11        -1.4230   -0.4870   -2.5200 n         1 MOL     -0.680105
    116 O18        -3.4940   -0.1450   -2.3860 o         1 MOL     -0.557643
    117 H50        -1.3160    1.6330    0.4200 hn        1 MOL      0.035416
    118 H51        -2.8750    3.6320   -1.3670 h1        1 MOL      0.084101
    119 H52        -1.1180    2.0660   -2.4490 hc        1 MOL      0.107025
    120 H53        -2.7130    2.1630   -3.1780 hc        1 MOL      0.107025
    121 H54        -0.4960   -0.1160   -2.3750 hn        1 MOL      0.343117
    122 H55        -1.6000   -1.4720   -2.3780 hn        1 MOL      0.343117
    123 N12        -5.1740    2.3370   -1.2180 n         1 MOL     -0.455209
    124 C39        -6.5520    2.0550   -0.7370 c3        1 MOL      0.112313
    125 C40        -6.8270    0.5990   -0.2770 c         1 MOL      0.464194
    126 O19        -7.7310    0.3440    0.5540 o         1 MOL     -0.519272
    127 C41        -7.6180    2.4890   -1.8350 c3        1 MOL     -0.026794
    128 C42        -9.0780    2.2620   -1.4020 ca        1 MOL     -0.173932
    129 C43        -9.7170    3.1160   -0.5030 ca        1 MOL     -0.015718
    130 C44        -9.7100    1.0670   -1.8840 ca        1 MOL     -0.015718
    131 C45       -11.0870    2.8690   -0.1800 ca        1 MOL     -0.327919
    132 C46       -11.0470    0.7840   -1.4470 ca        1 MOL     -0.327919
    133 C47       -11.7130    1.6600   -0.5550 ca        1 MOL      0.426501
    134 O20       -13.0050    1.4690   -0.0530 oh        1 MOL     -0.588494
    135 H56        -4.9970    2.9040   -2.0350 hn        1 MOL      0.288182
    136 H57        -6.7450    2.7350    0.0910 h1        1 MOL      0.060029
    137 H58        -7.3680    1.9310   -2.7310 hc        1 MOL      0.043371
    138 H59        -7.4650    3.5250   -2.1290 hc        1 MOL      0.043371
    139 H60        -9.2740    4.0500   -0.1810 ha        1 MOL      0.106538
    140 H61        -9.2160    0.4070   -2.5870 ha        1 MOL      0.106538
    141 H62       -11.4950    3.6430    0.4600 ha        1 MOL      0.149259
    142 H63       -11.5200   -0.0950   -1.8510 ha        1 MOL      0.149259
    143 H64       -13.3560    0.5980   -0.2450 ho        1 MOL      0.405384
    144 N13        -6.0380   -0.3420   -0.8130 n         1 MOL     -0.260088
    145 C48        -6.1170   -1.8270   -0.5220 c3        1 MOL     -0.028598
    146 C49        -5.2470   -2.2090    0.7060 c         1 MOL      0.376460
    147 O21        -5.3280   -3.3370    1.1890 o         1 MOL     -0.507771
    148 C50        -5.9110   -2.7360   -1.7470 c3        1 MOL      0.085623
    149 C51        -7.1250   -2.7120   -2.6650 c3        1 MOL     -0.102756
    150 C52        -7.0270   -3.8170   -3.7080 c         1 MOL      0.625247
    151 O22        -7.3790   -5.0090   -3.3360 o         1 MOL     -0.725756
    152 O23        -6.7640   -3.4590   -4.9000 o         1 MOL     -0.725756
    153 H65        -5.3480   -0.1130   -1.5180 hn        1 MOL      0.176772
    154 H66        -7.1240   -2.1320   -0.2370 h1        1 MOL      0.095888
    155 H67        -5.9020   -3.7590   -1.3850 hc        1 MOL      0.009223
    156 H68        -5.0120   -2.5620   -2.3440 hc        1 MOL      0.009223
    157 H69        -7.2890   -1.7320   -3.0960 hc        1 MOL      0.002287
    158 H70        -7.9610   -3.0190   -2.0250 hc        1 MOL      0.002287
    159 N14        -4.4630   -1.2450    1.1850 n         1 MOL     -0.295875
    160 C53        -3.6710   -1.3500    2.4170 c3        1 MOL     -0.081856
    161 C54        -4.2850   -0.5540    3.5660 c         1 MOL      0.595829
    162 O24        -3.7680   -0.5760    4.6510 o         1 MOL     -0.571838
    163 C55        -2.2660   -0.8090    2.0560 c3        1 MOL     -0.044923
    164 C56        -1.5320   -1.7760    1.1070 c3        1 MOL     -0.021756
    165 C57        -0.2080   -1.1830    0.4770 c         1 MOL      0.658910
    166 O25         0.7580   -1.9680    0.3150 o         1 MOL     -0.694378
    167 O26        -0.0210    0.0170    0.1410 o         1 MOL     -0.694378
    168 H71        -4.3170   -0.4020    0.6370 hn        1 MOL      0.164376
    169 H72        -3.5840   -2.3950    2.7040 h1        1 MOL      0.076465
    170 H73        -1.6490   -0.5960    2.9250 hc        1 MOL      0.093210
    171 H74        -2.4870    0.1090    1.5210 hc        1 MOL      0.093210
    172 H75        -2.1400   -2.1020    0.2590 hc        1 MOL      0.042662
    173 H76        -1.2510   -2.6670    1.6630 hc        1 MOL      0.042662
    174 N15        -5.2450    0.3060    3.2560 n         1 MOL     -0.338541
    175 C58        -5.7730    1.3770    4.1160 c3        1 MOL     -0.082926
    176 H77        -6.3100    0.9350    4.9550 h1        1 MOL      0.059875
    177 H78        -4.9480    1.9820    4.4910 h1        1 MOL      0.059875
    178 H79        -6.4520    2.0050    3.5390 h1        1 MOL      0.059875
    179 H80        -5.2430    0.5450    2.2650 hn        1 MOL      0.195083
    180 Ca1         2.6860   -0.0840    0.1580 Ca        1 MOL      1.665920
    181 O27         2.1440    0.0690    2.7160 oh        1 MOL     -0.917354
    182 H81         1.4300   -0.3140    3.2340 ho        1 MOL      0.427348
    183 H82         2.5780    0.6640    3.3250 ho        1 MOL      0.427348
    184 O28         1.3100    1.0070   -2.2440 oh        1 MOL     -0.917354
    185 H83         1.7150    0.1830   -2.5260 ho        1 MOL      0.427348
    186 H84         2.0020    1.6560   -2.3530 ho        1 MOL      0.427348
    187 O29         5.0150    0.6240    1.5950 oh        1 MOL     -0.917354
    188 H85         4.8680    1.0670    2.4340 ho        1 MOL      0.427348
    189 H86         5.8840    0.2330    1.6910 ho        1 MOL      0.427348
@<TRIPOS>BOND
     1    1    2 1   
     2    1    4 1   
     3    1    5 1   
     4    1    6 1   
     5    2    3 2   
     6    2    7 1   
     7    7    8 1   
     8    7   15 1   
     9    8    9 1   
    10    8   11 1   
    11    8   16 1   
    12    9   10 2   
    13    9   19 1   
    14   11   12 1   
    15   11   17 1   
    16   11   18 1   
    17   12   13 1   
    18   12   14 1   
    19   19   20 1   
    20   19   27 1   
    21   20   21 1   
    22   20   23 1   
    23   20   28 1   
    24   21   22 2   
    25   21   38 1   
    26   23   24 1   
    27   23   25 1   
    28   23   29 1   
    29   24   26 1   
    30   24   30 1   
    31   24   31 1   
    32   25   32 1   
    33   25   33 1   
    34   25   34 1   
    35   26   35 1   
    36   26   36 1   
    37   26   37 1   
    38   38   39 1   
    39   38   46 1   
    40   39   40 1   
    41   39   42 1   
    42   39   47 1   
    43   40   41 2   
    44   40   50 1   
    45   42   43 1   
    46   42   48 1   
    47   42   49 1   
    48   43   44 1   
    49   43   45 1   
    50   50   51 1   
    51   50   54 1   
    52   51   52 1   
    53   51   55 1   
    54   51   56 1   
    55   52   53 2   
    56   52   57 1   
    57   57   58 1   
    58   57   65 1   
    59   58   59 1   
    60   58   61 1   
    61   58   66 1   
    62   59   60 2   
    63   59   69 1   
    64   61   62 1   
    65   61   67 1   
    66   61   68 1   
    67   62   63 1   
    68   62   64 1   
    69   69   70 1   
    70   69   73 1   
    71   70   71 1   
    72   70   74 1   
    73   70   75 1   
    74   71   72 2   
    75   71   76 1   
    76   76   77 1   
    77   76   85 1   
    78   77   78 1   
    79   77   80 1   
    80   77   86 1   
    81   78   79 2   
    82   78   93 1   
    83   80   81 1   
    84   80   87 1   
    85   80   88 1   
    86   81   82 1   
    87   81   89 1   
    88   81   90 1   
    89   82   83 1   
    90   82   84 2   
    91   83   91 1   
    92   83   92 1   
    93   93   94 1   
    94   93  100 1   
    95   94   95 1   
    96   94   97 1   
    97   94  101 1   
    98   95   96 2   
    99   95  109 1   
   100   97   98 1   
   101   97   99 1   
   102   97  102 1   
   103   98  103 1   
   104   98  104 1   
   105   98  105 1   
   106   99  106 1   
   107   99  107 1   
   108   99  108 1   
   109  109  110 1   
   110  109  117 1   
   111  110  111 1   
   112  110  113 1   
   113  110  118 1   
   114  111  112 2   
   115  111  123 1   
   116  113  114 1   
   117  113  119 1   
   118  113  120 1   
   119  114  115 1   
   120  114  116 2   
   121  115  121 1   
   122  115  122 1   
   123  123  124 1   
   124  123  135 1   
   125  124  125 1   
   126  124  127 1   
   127  124  136 1   
   128  125  126 2   
   129  125  144 1   
   130  127  128 1   
   131  127  137 1   
   132  127  138 1   
   133  128  129 ar  
   134  128  130 ar  
   135  129  131 ar  
   136  129  139 1   
   137  130  132 ar  
   138  130  140 1   
   139  131  133 ar  
   140  131  141 1   
   141  132  133 ar  
   142  132  142 1   
   143  133  134 1   
   144  134  143 1   
   145  144  145 1   
   146  144  153 1   
   147  145  146 1   
   148  145  148 1   
   149  145  154 1   
   150  146  147 2   
   151  146  159 1   
   152  148  149 1   
   153  148  155 1   
   154  148  156 1   
   155  149  150 1   
   156  149  157 1   
   157  149  158 1   
   158  150  151 1   
   159  150  152 1   
   160  159  160 1   
   161  159  168 1   
   162  160  161 1   
   163  160  163 1   
   164  160  169 1   
   165  161  162 2   
   166  161  174 1   
   167  163  164 1   
   168  163  170 1   
   169  163  171 1   
   170  164  165 1   
   171  164  172 1   
   172  164  173 1   
   173  165  166 1   
   174  165  167 1   
   175  174  175 1   
   176  174  179 1   
   177  175  176 1   
   178  175  177 1   
   179  175  178 1   
   180  181  182 1   
   181  181  183 1   
   182  184  185 1   
   183  184  186 1   
   184  187  188 1   
   185  187  189 1   
@<TRIPOS>SUBSTRUCTURE
     1 MOL         1 TEMP              0 ****  ****    0 ROOT
