@<TRIPOS>MOLECULE
MOL
  189   185     1     0     0
SMALL
resp


@<TRIPOS>ATOM
      1 C1          0.1920   -3.6910    5.9260 c3        1 MOL     -0.509915
      2 C2          0.8800   -3.2400    4.6210 c         1 MOL      0.732146
      3 O1          1.0130   -2.0630    4.3410 o         1 MOL     -0.586153
      4 H1          0.5110   -3.0470    6.7450 hc        1 MOL      0.137215
      5 H2         -0.8900   -3.6230    5.8110 hc        1 MOL      0.137215
      6 H3          0.4710   -4.7220    6.1460 hc        1 MOL      0.137215
      7 N1          1.3760   -4.1140    3.7610 n         1 MOL     -0.571418
      8 C3          2.0760   -3.7780    2.4990 c3        1 MOL      0.001567
      9 C4          1.9190   -4.9180    1.5100 c         1 MOL      0.484605
     10 O2          2.3680   -5.9950    1.8620 o         1 MOL     -0.562250
     11 C5          3.5350   -3.6050    2.7620 c3        1 MOL     -0.069202
     12 C6          4.2610   -2.8960    1.5850 c         1 MOL      0.627341
     13 O3          3.6080   -2.3910    0.6240 o         1 MOL     -0.675965
     14 O4          5.4940   -2.8980    1.5810 o         1 MOL     -0.675965
     15 H4          1.4860   -5.0830    4.0320 hn        1 MOL      0.302534
     16 H5          1.5960   -2.9180    2.0450 h1        1 MOL      0.108908
     17 H6          4.0940   -4.5080    3.0360 hc        1 MOL      0.031122
     18 H7          3.6990   -2.9400    3.6200 hc        1 MOL      0.031122
     19 N2          1.5020   -4.6770    0.2350 n         1 MOL     -0.135575
     20 C7          1.4820   -5.6130   -0.8640 c3        1 MOL     -0.108465
     21 C8          2.4690   -5.2010   -1.9970 c         1 MOL      0.529816
     22 O5          2.5910   -6.0740   -2.9150 o         1 MOL     -0.595772
     23 C9          0.0320   -6.0080   -1.2790 c3        1 MOL      0.231899
     24 C10        -0.7100   -4.7990   -1.8630 c3        1 MOL     -0.090846
     25 C11        -0.6810   -6.6710   -0.0700 c3        1 MOL     -0.138073
     26 C12        -2.2580   -4.9380   -2.2250 c3        1 MOL     -0.384843
     27 H8          1.2070   -3.7260    0.0700 hn        1 MOL      0.131926
     28 H9          1.9810   -6.4870   -0.4320 h1        1 MOL      0.073936
     29 H10         0.1260   -6.7830   -2.0280 hc        1 MOL     -0.030109
     30 H11        -0.2110   -4.5410   -2.8010 hc        1 MOL      0.061754
     31 H12        -0.5660   -3.8790   -1.2880 hc        1 MOL      0.061754
     32 H13        -1.7010   -6.9750   -0.2980 hc        1 MOL      0.013088
     33 H14        -0.0960   -7.5150    0.3060 hc        1 MOL      0.013088
     34 H15        -0.6710   -5.9660    0.7600 hc        1 MOL      0.013088
     35 H16        -2.3880   -5.8210   -2.8560 hc        1 MOL      0.122316
     36 H17        -2.9260   -4.8190   -1.3680 hc        1 MOL      0.122316
     37 H18        -2.4150   -4.0790   -2.8690 hc        1 MOL      0.122316
     38 N3          3.1280   -4.0360   -2.0230 n         1 MOL     -0.564253
     39 C13         3.8700   -3.5920   -3.1850 c3        1 MOL      0.385069
     40 C14         5.2000   -2.8700   -2.8440 c         1 MOL      0.226298
     41 O6          6.1250   -3.0110   -3.6580 o         1 MOL     -0.556419
     42 C15         2.9470   -2.6480   -3.9950 c3        1 MOL     -0.421958
     43 C16         2.2710   -1.5210   -3.2210 c         1 MOL      0.775405
     44 O7          2.7400   -1.2560   -2.0640 o         1 MOL     -0.679768
     45 O8          1.2900   -0.8650   -3.6800 o         1 MOL     -0.679768
     46 H19         3.0050   -3.4280   -1.2300 hn        1 MOL      0.341390
     47 H20         4.2080   -4.3700   -3.8630 h1        1 MOL      0.041116
     48 H21         2.1540   -3.2740   -4.4070 hc        1 MOL      0.095339
     49 H22         3.5210   -2.1920   -4.7930 hc        1 MOL      0.095339
     50 N4          5.4350   -2.3220   -1.6830 n         1 MOL      0.014362
     51 C17         6.8300   -1.9790   -1.2860 c3        1 MOL     -0.057372
     52 C18         7.0880   -0.5510   -1.8730 c         1 MOL      0.454085
     53 O9          8.2070   -0.1440   -2.0630 o         1 MOL     -0.602612
     54 H23         4.7440   -2.4140   -0.9580 hn        1 MOL      0.102172
     55 H24         7.5430   -2.7830   -1.4960 h1        1 MOL      0.062212
     56 H25         6.8060   -1.8260   -0.2110 h1        1 MOL      0.062212
     57 N5          6.0410    0.2280   -2.1770 n         1 MOL     -0.160427
     58 C19         6.2020    1.6110   -2.6220 c3        1 MOL     -0.052973
     59 C20         6.5560    2.6120   -1.5240 c         1 MOL      0.470303
     60 O10         6.7440    3.7700   -1.7310 o         1 MOL     -0.566598
     61 C21         4.9960    2.0550   -3.3840 c3        1 MOL     -0.273260
     62 C22         3.6100    1.8950   -2.6320 c         1 MOL      0.721050
     63 O11         3.5240    1.3170   -1.5230 o         1 MOL     -0.701594
     64 O12         2.6390    2.4840   -3.1740 o         1 MOL     -0.701594
     65 H26         5.1340   -0.1750   -2.0280 hn        1 MOL      0.176403
     66 H27         7.0130    1.7160   -3.3440 h1        1 MOL      0.104265
     67 H28         5.0250    1.4950   -4.3270 hc        1 MOL      0.079717
     68 H29         5.0820    3.1250   -3.5840 hc        1 MOL      0.079717
     69 N6          6.5680    2.1970   -0.2390 n         1 MOL     -0.150667
     70 C23         7.0270    2.9760    0.9290 c3        1 MOL     -0.436253
     71 C24         5.9280    3.7330    1.6400 c         1 MOL      0.570013
     72 O13         6.2000    4.4940    2.5910 o         1 MOL     -0.572639
     73 H30         6.2200    1.2720   -0.0600 hn        1 MOL      0.148893
     74 H31         7.8080    3.6540    0.6120 h1        1 MOL      0.171118
     75 H32         7.4840    2.2190    1.5760 h1        1 MOL      0.171118
     76 N7          4.6740    3.5080    1.1650 n         1 MOL     -0.339375
     77 C25         3.5680    4.2720    1.6910 c3        1 MOL     -0.100318
     78 C26         2.4490    3.2090    1.8940 c         1 MOL      0.870074
     79 O14         2.4620    2.1860    1.2520 o         1 MOL     -0.786744
     80 C27         3.1220    5.4160    0.7570 c3        1 MOL      0.149102
     81 C28         4.1310    6.5350    0.4720 c3        1 MOL     -0.254587
     82 C29         3.5920    7.7620   -0.3450 c         1 MOL      0.547621
     83 N8          3.4510    7.5890   -1.6420 n         1 MOL     -0.734739
     84 O15         3.0910    8.7960    0.1960 o         1 MOL     -0.555994
     85 H33         4.6700    3.1200    0.2310 hn        1 MOL      0.340406
     86 H34         3.8810    4.6960    2.6390 h1        1 MOL      0.071718
     87 H35         2.3120    5.9270    1.2620 hc        1 MOL      0.010926
     88 H36         2.8340    4.9670   -0.1960 hc        1 MOL      0.010926
     89 H37         4.8990    5.9910   -0.0780 hc        1 MOL      0.083907
     90 H38         4.6010    6.8840    1.3950 hc        1 MOL      0.083907
     91 H39         3.8590    6.7490   -2.0100 hn        1 MOL      0.368247
     92 H40         2.9830    8.2490   -2.2530 hn        1 MOL      0.368247
     93 N9          1.4550    3.4750    2.7240 n         1 MOL     -0.813845
     94 C30         0.2840    2.6220    2.8480 c3        1 MOL      0.232262
     95 C31        -0.8040    3.1920    2.0070 c         1 MOL      0.381026
     96 O16        -1.0210    4.3790    1.9670 o         1 MOL     -0.586227
     97 C32        -0.2510    2.5370    4.2820 c3        1 MOL      0.161169
     98 C33        -1.5590    1.8410    4.5860 c3        1 MOL     -0.142562
     99 C34         0.7290    1.5820    5.0150 c3        1 MOL     -0.142562
    100 H41         1.3460    4.3310    3.2540 hn        1 MOL      0.351647
    101 H42         0.5700    1.6230    2.5120 h1        1 MOL      0.217743
    102 H43        -0.2150    3.5300    4.7290 hc        1 MOL     -0.012313
    103 H44        -1.6960    1.7800    5.6630 hc        1 MOL      0.014752
    104 H45        -2.3300    2.5010    4.1780 hc        1 MOL      0.014752
    105 H46        -1.6030    0.8760    4.0930 hc        1 MOL      0.014752
    106 H47         1.7280    1.8540    4.6780 hc        1 MOL      0.014752
    107 H48         0.7370    1.7610    6.0870 hc        1 MOL      0.014752
    108 H49         0.6120    0.5210    4.8020 hc        1 MOL      0.014752
    109 N10        -1.6020    2.3600    1.3970 n         1 MOL     -0.083393
    110 C35        -2.7590    2.7790    0.6090 c3        1 MOL      0.324956
    111 C36        -4.1830    2.2370    1.0140 c         1 MOL      0.252903
    112 O17        -4.2830    1.3170    1.8330 o         1 MOL     -0.432015
    113 C37        -2.3290    2.5730   -0.8660 c3        1 MOL     -0.141658
    114 C38        -2.8650    1.3760   -1.5840 c         1 MOL      0.648619
    115 N11        -2.0280    0.5190   -2.0870 n         1 MOL     -0.760957
    116 O18        -4.0770    1.3540   -1.8000 o         1 MOL     -0.565379
    117 H50        -1.3480    1.3900    1.3950 hn        1 MOL     -0.042688
    118 H51        -2.9160    3.8460    0.7430 h1        1 MOL     -0.042015
    119 H52        -1.2710    2.6700   -1.0940 hc        1 MOL      0.030041
    120 H53        -2.8040    3.3630   -1.4430 hc        1 MOL      0.030041
    121 H54        -1.1080    0.5780   -1.6900 hn        1 MOL      0.401861
    122 H55        -2.2820   -0.2810   -2.6500 hn        1 MOL      0.401861
    123 N12        -5.2900    2.7730    0.4660 n         1 MOL     -0.331381
    124 C39        -6.6550    2.3590    0.8740 c3        1 MOL      0.087144
    125 C40        -6.9730    0.8880    0.5970 c         1 MOL      0.640952
    126 O19        -7.8830    0.3500    1.1930 o         1 MOL     -0.632441
    127 C41        -7.6620    3.3780    0.2740 c3        1 MOL     -0.220435
    128 C42        -7.6580    3.6920   -1.1980 ca        1 MOL      0.249683
    129 C43        -8.5100    2.9530   -2.1110 ca        1 MOL     -0.398471
    130 C44        -6.8300    4.6980   -1.6970 ca        1 MOL     -0.398471
    131 C45        -8.4720    3.1340   -3.4980 ca        1 MOL      0.011251
    132 C46        -6.8590    4.9440   -3.0870 ca        1 MOL      0.011251
    133 C47        -7.6360    4.1570   -3.9560 ca        1 MOL      0.093773
    134 O20        -7.4040    4.3120   -5.3000 oh        1 MOL     -0.493872
    135 H56        -5.0870    3.4910   -0.2190 hn        1 MOL      0.259928
    136 H57        -6.7020    2.4150    1.9670 h1        1 MOL      0.061666
    137 H58        -7.4720    4.3490    0.7210 hc        1 MOL      0.058586
    138 H59        -8.6470    3.0260    0.5810 hc        1 MOL      0.058586
    139 H60        -9.1370    2.1640   -1.7280 ha        1 MOL      0.189279
    140 H61        -6.3040    5.3370   -1.0150 ha        1 MOL      0.189279
    141 H62        -9.1620    2.6200   -4.1540 ha        1 MOL      0.089179
    142 H63        -6.4190    5.7790   -3.6280 ha        1 MOL      0.089179
    143 H64        -7.8930    3.6620   -5.8060 ho        1 MOL      0.396478
    144 N13        -6.2320    0.1690   -0.2790 n         1 MOL     -0.349817
    145 C48        -6.5110   -1.3070   -0.4950 c3        1 MOL      0.008123
    146 C49        -5.7390   -2.2010    0.5710 c         1 MOL      0.437552
    147 O21        -6.1010   -3.3210    0.9110 o         1 MOL     -0.523901
    148 C50        -6.1460   -1.5810   -1.9360 c3        1 MOL      0.161193
    149 C51        -6.6560   -2.9800   -2.2780 c3        1 MOL     -0.189158
    150 C52        -6.1360   -3.5260   -3.6410 c         1 MOL      0.666322
    151 O22        -5.7320   -2.7650   -4.5750 o         1 MOL     -0.737453
    152 O23        -6.1300   -4.7920   -3.7810 o         1 MOL     -0.737453
    153 H65        -5.3650    0.6180   -0.5340 hn        1 MOL      0.137063
    154 H66        -7.5660   -1.5570   -0.3880 h1        1 MOL      0.092148
    155 H67        -5.0910   -1.4870   -2.2050 hc        1 MOL     -0.024875
    156 H68        -6.7590   -0.9090   -2.5460 hc        1 MOL     -0.024875
    157 H69        -7.7420   -3.0680   -2.2480 hc        1 MOL      0.007359
    158 H70        -6.3460   -3.6870   -1.5010 hc        1 MOL      0.007359
    159 N14        -4.7770   -1.5970    1.2330 n         1 MOL     -0.257212
    160 C53        -3.9380   -2.2610    2.2200 c3        1 MOL     -0.291729
    161 C54        -4.5260   -2.0980    3.6870 c         1 MOL      0.624323
    162 O24        -4.3450   -2.9780    4.5110 o         1 MOL     -0.552518
    163 C55        -2.5310   -1.7410    2.1610 c3        1 MOL      0.107109
    164 C56        -1.8540   -2.1060    0.9200 c3        1 MOL      0.093022
    165 C57        -0.5110   -1.3340    0.7600 c         1 MOL      0.608143
    166 O25         0.3710   -1.8660    0.0160 o         1 MOL     -0.756206
    167 O26        -0.2410   -0.1850    1.1380 o         1 MOL     -0.756206
    168 H71        -4.4860   -0.7320    0.8100 hn        1 MOL      0.261968
    169 H72        -3.9430   -3.3070    1.9240 h1        1 MOL      0.141252
    170 H73        -2.0400   -2.2780    2.9680 hc        1 MOL      0.026608
    171 H74        -2.4860   -0.6660    2.3510 hc        1 MOL      0.026608
    172 H75        -2.4660   -1.8010    0.0720 hc        1 MOL     -0.000500
    173 H76        -1.6780   -3.1820    0.9150 hc        1 MOL     -0.000500
    174 N15        -5.3160   -0.9960    3.8830 n         1 MOL     -0.384914
    175 C58        -5.4680   -0.4050    5.2300 c3        1 MOL     -0.035684
    176 H77        -4.7720    0.4260    5.3420 h1        1 MOL      0.046401
    177 H78        -6.4890   -0.0420    5.3540 h1        1 MOL      0.046401
    178 H79        -5.2550   -1.1610    5.9850 h1        1 MOL      0.046401
    179 H80        -5.4470   -0.3090    3.1430 hn        1 MOL      0.239196
    180 Ca1         2.2140   -0.0730    0.1020 Ca        1 MOL      1.731342
    181 O27         2.5200   -0.3450    2.7990 oh        1 MOL     -0.819985
    182 H81         2.0210   -1.0970    3.1120 ho        1 MOL      0.400398
    183 H82         3.2000   -0.2240    3.4640 ho        1 MOL      0.400398
    184 O28         5.1750   -0.2480    0.7480 oh        1 MOL     -0.819985
    185 H83         5.4410   -1.1650    0.6790 ho        1 MOL      0.400398
    186 H84         5.5810    0.0570    1.5600 ho        1 MOL      0.400398
    187 O29         0.7210    0.9880   -2.0740 oh        1 MOL     -0.819985
    188 H85         0.9850    0.2890   -2.6800 ho        1 MOL      0.400398
    189 H86         1.2790    1.7260   -2.3080 ho        1 MOL      0.400398
@<TRIPOS>BOND
     1    1    2 1   
     2    1    4 1   
     3    1    5 1   
     4    1    6 1   
     5    2    3 2   
     6    2    7 1   
     7    7    8 1   
     8    7   15 1   
     9    8    9 1   
    10    8   11 1   
    11    8   16 1   
    12    9   10 2   
    13    9   19 1   
    14   11   12 1   
    15   11   17 1   
    16   11   18 1   
    17   12   13 1   
    18   12   14 1   
    19   19   20 1   
    20   19   27 1   
    21   20   21 1   
    22   20   23 1   
    23   20   28 1   
    24   21   22 2   
    25   21   38 1   
    26   23   24 1   
    27   23   25 1   
    28   23   29 1   
    29   24   26 1   
    30   24   30 1   
    31   24   31 1   
    32   25   32 1   
    33   25   33 1   
    34   25   34 1   
    35   26   35 1   
    36   26   36 1   
    37   26   37 1   
    38   38   39 1   
    39   38   46 1   
    40   39   40 1   
    41   39   42 1   
    42   39   47 1   
    43   40   41 2   
    44   40   50 1   
    45   42   43 1   
    46   42   48 1   
    47   42   49 1   
    48   43   44 1   
    49   43   45 1   
    50   50   51 1   
    51   50   54 1   
    52   51   52 1   
    53   51   55 1   
    54   51   56 1   
    55   52   53 2   
    56   52   57 1   
    57   57   58 1   
    58   57   65 1   
    59   58   59 1   
    60   58   61 1   
    61   58   66 1   
    62   59   60 2   
    63   59   69 1   
    64   61   62 1   
    65   61   67 1   
    66   61   68 1   
    67   62   63 1   
    68   62   64 1   
    69   69   70 1   
    70   69   73 1   
    71   70   71 1   
    72   70   74 1   
    73   70   75 1   
    74   71   72 2   
    75   71   76 1   
    76   76   77 1   
    77   76   85 1   
    78   77   78 1   
    79   77   80 1   
    80   77   86 1   
    81   78   79 2   
    82   78   93 1   
    83   80   81 1   
    84   80   87 1   
    85   80   88 1   
    86   81   82 1   
    87   81   89 1   
    88   81   90 1   
    89   82   83 1   
    90   82   84 2   
    91   83   91 1   
    92   83   92 1   
    93   93   94 1   
    94   93  100 1   
    95   94   95 1   
    96   94   97 1   
    97   94  101 1   
    98   95   96 2   
    99   95  109 1   
   100   97   98 1   
   101   97   99 1   
   102   97  102 1   
   103   98  103 1   
   104   98  104 1   
   105   98  105 1   
   106   99  106 1   
   107   99  107 1   
   108   99  108 1   
   109  109  110 1   
   110  109  117 1   
   111  110  111 1   
   112  110  113 1   
   113  110  118 1   
   114  111  112 2   
   115  111  123 1   
   116  113  114 1   
   117  113  119 1   
   118  113  120 1   
   119  114  115 1   
   120  114  116 2   
   121  115  121 1   
   122  115  122 1   
   123  123  124 1   
   124  123  135 1   
   125  124  125 1   
   126  124  127 1   
   127  124  136 1   
   128  125  126 2   
   129  125  144 1   
   130  127  128 1   
   131  127  137 1   
   132  127  138 1   
   133  128  129 ar  
   134  128  130 ar  
   135  129  131 ar  
   136  129  139 1   
   137  130  132 ar  
   138  130  140 1   
   139  131  133 ar  
   140  131  141 1   
   141  132  133 ar  
   142  132  142 1   
   143  133  134 1   
   144  134  143 1   
   145  144  145 1   
   146  144  153 1   
   147  145  146 1   
   148  145  148 1   
   149  145  154 1   
   150  146  147 2   
   151  146  159 1   
   152  148  149 1   
   153  148  155 1   
   154  148  156 1   
   155  149  150 1   
   156  149  157 1   
   157  149  158 1   
   158  150  151 1   
   159  150  152 1   
   160  159  160 1   
   161  159  168 1   
   162  160  161 1   
   163  160  163 1   
   164  160  169 1   
   165  161  162 2   
   166  161  174 1   
   167  163  164 1   
   168  163  170 1   
   169  163  171 1   
   170  164  165 1   
   171  164  172 1   
   172  164  173 1   
   173  165  166 1   
   174  165  167 1   
   175  174  175 1   
   176  174  179 1   
   177  175  176 1   
   178  175  177 1   
   179  175  178 1   
   180  181  182 1   
   181  181  183 1   
   182  184  185 1   
   183  184  186 1   
   184  187  188 1   
   185  187  189 1   
@<TRIPOS>SUBSTRUCTURE
     1 MOL         1 TEMP              0 ****  ****    0 ROOT
