@<TRIPOS>MOLECULE
MOL
  176   174     1     0     0
SMALL
resp


@<TRIPOS>ATOM
      1 C1          0.6960    3.2940    6.5960 c3        1 MOL     -0.311133
      2 C2          0.5680    2.7860    5.1470 c         1 MOL      0.709871
      3 O1          1.6050    2.6680    4.4730 o         1 MOL     -0.560444
      4 H1          1.6770    3.7480    6.7360 hc        1 MOL      0.083751
      5 H2         -0.0780    4.0360    6.7920 hc        1 MOL      0.083751
      6 H3          0.5820    2.4580    7.2860 hc        1 MOL      0.083751
      7 N1         -0.6610    2.6780    4.5570 n         1 MOL     -0.640217
      8 C3         -0.8470    2.4410    3.0440 c3        1 MOL      0.095881
      9 C4         -0.8050    3.7560    2.2290 c         1 MOL      0.783395
     10 O2         -1.4020    4.7420    2.6940 o         1 MOL     -0.604690
     11 C5         -2.2310    1.7220    2.9720 c3        1 MOL     -0.236452
     12 C6         -2.6720    1.2630    1.6580 c         1 MOL      0.752451
     13 O3         -2.4630    1.9120    0.5850 o         1 MOL     -0.725606
     14 O4         -2.9430    0.0910    1.3800 o         1 MOL     -0.725606
     15 H4         -1.4870    2.6610    5.1350 hn        1 MOL      0.337730
     16 H5         -0.0960    1.7840    2.5990 h1        1 MOL      0.006564
     17 H6         -2.9090    2.4480    3.4200 hc        1 MOL      0.070608
     18 H7         -2.2650    0.8330    3.6110 hc        1 MOL      0.070608
     19 N2         -0.2600    3.7400    1.0680 n         1 MOL     -0.651440
     20 C7         -0.0410    4.9250    0.1580 c3        1 MOL     -0.039207
     21 C8         -1.3160    5.4340   -0.6270 c         1 MOL      0.587872
     22 O5         -1.3180    6.5870   -0.9750 o         1 MOL     -0.600435
     23 C9          1.1940    4.5510   -0.7240 c3        1 MOL      0.199873
     24 C10         1.4450    5.4790   -1.8890 c3        1 MOL     -0.111015
     25 C11         2.8670    5.4690   -2.4080 c3        1 MOL     -0.100915
     26 C12         2.9230    6.4720   -3.6050 c3        1 MOL     -0.061160
     27 N3          2.1970    5.9880   -4.7220 n4        1 MOL     -0.339368
     28 H8          0.0460    2.8850    0.6340 hn        1 MOL      0.369748
     29 H9          0.3100    5.8030    0.7030 h1        1 MOL      0.101221
     30 H10         1.0940    3.5410   -1.1250 hc        1 MOL     -0.003356
     31 H11         2.0860    4.5110   -0.1050 hc        1 MOL     -0.003356
     32 H12         1.3410    6.4170   -1.3380 hc        1 MOL      0.021209
     33 H13         0.6610    5.2830   -2.6250 hc        1 MOL      0.021209
     34 H14         3.2570    4.4680   -2.6210 hc        1 MOL      0.092988
     35 H15         3.5510    5.8420   -1.6400 hc        1 MOL      0.092988
     36 H16         3.9700    6.5840   -3.8740 hx        1 MOL      0.113497
     37 H17         2.5910    7.4660   -3.2750 hx        1 MOL      0.113497
     38 H18         2.2330    6.7050   -5.4420 hn        1 MOL      0.327540
     39 H19         2.5360    5.1140   -5.1100 hn        1 MOL      0.327540
     40 H20         1.2180    5.9100   -4.4730 hn        1 MOL      0.327540
     41 N4         -2.2840    4.5610   -0.6690 n         1 MOL     -0.352696
     42 C13        -3.5010    4.7410   -1.5100 c3        1 MOL      0.133269
     43 C14        -4.7210    4.3280   -0.7420 c         1 MOL      0.443086
     44 O6         -5.7100    5.0470   -0.9290 o         1 MOL     -0.584684
     45 C15        -3.3940    3.8830   -2.8160 c3        1 MOL     -0.185511
     46 C16        -2.9950    2.4360   -2.5150 c         1 MOL      0.691905
     47 O7         -1.8210    2.0470   -2.6390 o         1 MOL     -0.731466
     48 O8         -3.8410    1.7090   -1.9480 o         1 MOL     -0.731466
     49 H21        -2.1190    3.7310   -0.1200 hn        1 MOL      0.255354
     50 H22        -3.6160    5.7810   -1.8050 h1        1 MOL      0.073798
     51 H23        -2.6590    4.3030   -3.4950 hc        1 MOL      0.043704
     52 H24        -4.3390    3.9160   -3.3650 hc        1 MOL      0.043704
     53 N5         -4.8290    3.2640    0.0460 n         1 MOL     -0.107710
     54 C17        -5.9160    2.8910    0.9740 c3        1 MOL      0.022012
     55 C18        -6.7330    1.6260    0.5890 c         1 MOL      0.356279
     56 O9         -7.8120    1.4560    1.1480 o         1 MOL     -0.538998
     57 H25        -3.9890    2.7130    0.0920 hn        1 MOL     -0.001061
     58 H26        -6.5330    3.7790    1.1460 h1        1 MOL      0.064218
     59 H27        -5.6020    2.8160    2.0150 h1        1 MOL      0.064218
     60 N6         -6.2070    0.8450   -0.3170 n         1 MOL     -0.089295
     61 C19        -6.9210   -0.4150   -0.9440 c3        1 MOL      0.047310
     62 C20        -6.9020   -1.6080   -0.0030 c         1 MOL      0.376500
     63 O10        -7.8240   -2.4370   -0.0370 o         1 MOL     -0.562265
     64 C21        -6.2080   -0.7600   -2.3140 c3        1 MOL     -0.361941
     65 C22        -5.0720   -1.7980   -2.1830 c         1 MOL      0.713078
     66 N7         -5.0710   -2.9440   -2.8640 n         1 MOL     -0.792025
     67 O11        -4.0780   -1.5300   -1.4560 o         1 MOL     -0.634136
     68 H28        -5.3930    1.1410   -0.8330 hn        1 MOL      0.124669
     69 H29        -7.9180   -0.0230   -1.1300 h1        1 MOL      0.105748
     70 H30        -5.7650    0.0690   -2.8780 hc        1 MOL      0.133321
     71 H31        -6.9660   -1.2440   -2.9140 hc        1 MOL      0.133321
     72 H32        -5.8850   -3.1780   -3.4110 hn        1 MOL      0.363696
     73 H33        -4.2620   -3.5340   -2.8590 hn        1 MOL      0.363696
     74 N8         -6.0060   -1.6820    0.9040 n         1 MOL     -0.014910
     75 C23        -6.0510   -2.4730    2.1390 c3        1 MOL     -0.299005
     76 C24        -4.7580   -3.1150    2.5860 c         1 MOL      0.574856
     77 O12        -4.6860   -3.5870    3.7190 o         1 MOL     -0.541462
     78 H34        -5.2610   -0.9880    0.9030 hn        1 MOL      0.150079
     79 H35        -6.8210   -3.2510    2.0730 h1        1 MOL      0.147020
     80 H36        -6.3530   -1.7440    2.8880 h1        1 MOL      0.147020
     81 N9         -3.7940   -3.2480    1.6150 n         1 MOL     -0.408940
     82 C25        -2.4620   -3.8830    1.8170 c3        1 MOL      0.166626
     83 C26        -1.2570   -3.0150    1.4530 c         1 MOL      0.513706
     84 O13        -1.3630   -2.1670    0.5120 o         1 MOL     -0.577105
     85 C27        -2.4030   -5.1520    1.0150 c3        1 MOL     -0.093827
     86 C28        -2.6690   -5.2210   -0.4650 ca        1 MOL      0.183497
     87 C29        -1.6520   -4.9390   -1.3860 ca        1 MOL     -0.173942
     88 C30        -3.9050   -5.7480   -0.9320 ca        1 MOL     -0.173942
     89 C31        -1.7780   -5.2680   -2.7610 ca        1 MOL     -0.258675
     90 C32        -3.9760   -6.1560   -2.2790 ca        1 MOL     -0.258675
     91 C33        -2.9200   -5.9650   -3.2400 ca        1 MOL      0.306628
     92 O14        -2.9620   -6.3120   -4.5860 oh        1 MOL     -0.501529
     93 H37        -4.0040   -2.8780    0.6990 hn        1 MOL      0.185353
     94 H38        -2.3470   -4.0470    2.8880 h1        1 MOL      0.056594
     95 H39        -3.0220   -5.9520    1.4350 hc        1 MOL      0.028438
     96 H40        -1.4420   -5.6390    1.1310 hc        1 MOL      0.028438
     97 H41        -0.6610   -4.6520   -1.0830 ha        1 MOL      0.154644
     98 H42        -4.7400   -5.8410   -0.2540 ha        1 MOL      0.154644
     99 H43        -0.9840   -5.1560   -3.4890 ha        1 MOL      0.135351
    100 H44        -4.8760   -6.5340   -2.7460 ha        1 MOL      0.135351
    101 H45        -3.8340   -6.6070   -4.8620 ho        1 MOL      0.377797
    102 N10        -0.0790   -3.3350    2.0090 n         1 MOL     -0.522104
    103 C34         1.1960   -2.6050    1.6970 c3        1 MOL      0.085763
    104 C35         2.3460   -3.5500    1.0760 c         1 MOL      0.534460
    105 O15         2.2440   -4.7780    1.0010 o         1 MOL     -0.582011
    106 C36         1.6770   -1.8100    2.9150 c3        1 MOL      0.201592
    107 C37         2.2370   -2.6580    4.0750 c3        1 MOL     -0.165819
    108 C38         0.7240   -0.7260    3.4480 c3        1 MOL     -0.092377
    109 C39         3.6590   -3.3710    3.9900 c3        1 MOL     -0.074484
    110 H46        -0.0450   -4.0910    2.6830 hn        1 MOL      0.306947
    111 H47         1.0210   -1.8320    0.9480 h1        1 MOL      0.068333
    112 H48         2.5240   -1.2670    2.4980 hc        1 MOL     -0.052904
    113 H49         1.3940   -3.3020    4.3470 hc        1 MOL      0.039706
    114 H50         2.3020   -2.0540    4.9780 hc        1 MOL      0.039706
    115 H51         0.2790   -0.1830    2.6230 hc        1 MOL      0.031529
    116 H52        -0.0370   -1.1500    4.1090 hc        1 MOL      0.031529
    117 H53         1.2990   -0.0400    4.0760 hc        1 MOL      0.031529
    118 H54         4.0970   -3.5700    4.9590 hc        1 MOL      0.023784
    119 H55         3.6180   -4.2760    3.3760 hc        1 MOL      0.023784
    120 H56         4.4000   -2.7150    3.5210 hc        1 MOL      0.023784
    121 N11         3.2670   -2.9760    0.3650 n         1 MOL     -0.047411
    122 C40         4.4480   -3.6340   -0.2690 c3        1 MOL     -0.028156
    123 C41         5.7000   -2.8240    0.0650 c         1 MOL      0.383486
    124 O16         5.6790   -1.8670    0.8640 o         1 MOL     -0.432710
    125 C42         4.1830   -3.7750   -1.7740 c3        1 MOL     -0.272062
    126 O17         4.0080   -2.4570   -2.2050 oh        1 MOL     -0.424688
    127 H57         3.2100   -1.9640    0.3630 hn        1 MOL      0.005644
    128 H58         4.6490   -4.6190    0.1750 h1        1 MOL      0.113011
    129 H59         3.2820   -4.3580   -1.9910 h1        1 MOL      0.146701
    130 H60         5.0900   -4.0960   -2.2820 h1        1 MOL      0.146701
    131 H61         4.0640   -2.3650   -3.1610 ho        1 MOL      0.389383
    132 N12         6.8200   -3.2310   -0.5330 n         1 MOL     -0.312266
    133 C43         8.1680   -2.6410   -0.3380 c3        1 MOL      0.061854
    134 C44         8.2350   -1.1710   -0.8300 c         1 MOL      0.442757
    135 O18         8.8240   -0.3010   -0.1780 o         1 MOL     -0.476736
    136 C45         9.1370   -3.5570   -1.0130 c3        1 MOL     -0.218702
    137 H62         6.8000   -4.0240   -1.1600 hn        1 MOL      0.268400
    138 H63         8.5010   -2.7620    0.6980 h1        1 MOL      0.110507
    139 H64        10.1480   -3.1750   -1.0910 hc        1 MOL      0.063487
    140 H65         9.1160   -4.4910   -0.4430 hc        1 MOL      0.063487
    141 H66         8.7680   -3.7940   -2.0190 hc        1 MOL      0.063487
    142 N13         7.4520   -0.9490   -1.9070 n         1 MOL     -0.389975
    143 C46         7.2480    0.4500   -2.4530 c3        1 MOL      0.141929
    144 C47         6.5460    1.2910   -1.3710 c         1 MOL      0.315392
    145 O19         7.0200    2.3800   -1.0030 o         1 MOL     -0.487284
    146 C48         6.5570    0.5080   -3.7960 c3        1 MOL     -0.405164
    147 H67         7.0080   -1.7220   -2.3810 hn        1 MOL      0.263190
    148 H68         8.2520    0.8100   -2.6480 h1        1 MOL      0.099559
    149 H69         5.5430    0.1190   -3.8950 hc        1 MOL      0.109187
    150 H70         6.6270    1.5600   -4.0850 hc        1 MOL      0.109187
    151 H71         7.2080   -0.1080   -4.4070 hc        1 MOL      0.109187
    152 N14         5.3900    0.7680   -0.8150 n         1 MOL     -0.036565
    153 C49         4.5410    1.5340    0.1270 c3        1 MOL     -0.228625
    154 C50         5.2400    1.7030    1.5200 c         1 MOL      0.518268
    155 O20         5.0740    2.7630    2.0990 o         1 MOL     -0.522323
    156 C51         3.1430    0.7890    0.1580 c3        1 MOL     -0.001609
    157 C52         2.4800    0.6430   -1.2360 c3        1 MOL     -0.082914
    158 C53         1.0220    0.4490   -1.0800 c         1 MOL      0.814377
    159 O21         0.3950    1.1630   -0.3420 o         1 MOL     -0.784263
    160 O22         0.4510   -0.5080   -1.6430 o         1 MOL     -0.784263
    161 H72         5.0920   -0.1440   -1.1050 hn        1 MOL      0.129247
    162 H73         4.4680    2.5390   -0.3030 h1        1 MOL      0.098448
    163 H74         2.4460    1.3620    0.7610 hc        1 MOL      0.063766
    164 H75         3.3310   -0.1660    0.6410 hc        1 MOL      0.063766
    165 H76         2.9490   -0.1420   -1.8290 hc        1 MOL     -0.028803
    166 H77         2.7120    1.5000   -1.8600 hc        1 MOL     -0.028803
    167 N15         6.0910    0.7330    1.8810 n         1 MOL     -0.094238
    168 C54         6.8090    0.7200    3.1470 c3        1 MOL     -0.317285
    169 H78         7.8070    1.1350    3.0030 h1        1 MOL      0.119893
    170 H79         6.2690    1.3220    3.8780 h1        1 MOL      0.119893
    171 H80         6.8910   -0.3050    3.5090 h1        1 MOL      0.119893
    172 H81         6.2020   -0.0640    1.2780 hn        1 MOL      0.142908
    173 Ca1        -1.9110   -0.0040   -0.9770 Ca        1 MOL      1.803268
    174 O23        -1.6530   -1.1460   -3.3700 oh        1 MOL     -0.869362
    175 H82        -1.0550   -0.7220   -3.9830 ho        1 MOL      0.418427
    176 H83        -1.8100   -2.0130   -3.7500 ho        1 MOL      0.418427
@<TRIPOS>BOND
     1    1    2 1   
     2    1    4 1   
     3    1    5 1   
     4    1    6 1   
     5    2    3 2   
     6    2    7 1   
     7    7    8 1   
     8    7   15 1   
     9    8    9 1   
    10    8   11 1   
    11    8   16 1   
    12    9   10 2   
    13    9   19 1   
    14   11   12 1   
    15   11   17 1   
    16   11   18 1   
    17   12   13 1   
    18   12   14 1   
    19   19   20 1   
    20   19   28 1   
    21   20   21 1   
    22   20   23 1   
    23   20   29 1   
    24   21   22 2   
    25   21   41 1   
    26   23   24 1   
    27   23   30 1   
    28   23   31 1   
    29   24   25 1   
    30   24   32 1   
    31   24   33 1   
    32   25   26 1   
    33   25   34 1   
    34   25   35 1   
    35   26   27 1   
    36   26   36 1   
    37   26   37 1   
    38   27   38 1   
    39   27   39 1   
    40   27   40 1   
    41   41   42 1   
    42   41   49 1   
    43   42   43 1   
    44   42   45 1   
    45   42   50 1   
    46   43   44 2   
    47   43   53 1   
    48   45   46 1   
    49   45   51 1   
    50   45   52 1   
    51   46   47 1   
    52   46   48 1   
    53   53   54 1   
    54   53   57 1   
    55   54   55 1   
    56   54   58 1   
    57   54   59 1   
    58   55   56 2   
    59   55   60 1   
    60   60   61 1   
    61   60   68 1   
    62   61   62 1   
    63   61   64 1   
    64   61   69 1   
    65   62   63 2   
    66   62   74 1   
    67   64   65 1   
    68   64   70 1   
    69   64   71 1   
    70   65   66 1   
    71   65   67 2   
    72   66   72 1   
    73   66   73 1   
    74   74   75 1   
    75   74   78 1   
    76   75   76 1   
    77   75   79 1   
    78   75   80 1   
    79   76   77 2   
    80   76   81 1   
    81   81   82 1   
    82   81   93 1   
    83   82   83 1   
    84   82   85 1   
    85   82   94 1   
    86   83   84 2   
    87   83  102 1   
    88   85   86 1   
    89   85   95 1   
    90   85   96 1   
    91   86   87 ar  
    92   86   88 ar  
    93   87   89 ar  
    94   87   97 1   
    95   88   90 ar  
    96   88   98 1   
    97   89   91 ar  
    98   89   99 1   
    99   90   91 ar  
   100   90  100 1   
   101   91   92 1   
   102   92  101 1   
   103  102  103 1   
   104  102  110 1   
   105  103  104 1   
   106  103  106 1   
   107  103  111 1   
   108  104  105 2   
   109  104  121 1   
   110  106  107 1   
   111  106  108 1   
   112  106  112 1   
   113  107  109 1   
   114  107  113 1   
   115  107  114 1   
   116  108  115 1   
   117  108  116 1   
   118  108  117 1   
   119  109  118 1   
   120  109  119 1   
   121  109  120 1   
   122  121  122 1   
   123  121  127 1   
   124  122  123 1   
   125  122  125 1   
   126  122  128 1   
   127  123  124 2   
   128  123  132 1   
   129  125  126 1   
   130  125  129 1   
   131  125  130 1   
   132  126  131 1   
   133  132  133 1   
   134  132  137 1   
   135  133  134 1   
   136  133  136 1   
   137  133  138 1   
   138  134  135 2   
   139  134  142 1   
   140  136  139 1   
   141  136  140 1   
   142  136  141 1   
   143  142  143 1   
   144  142  147 1   
   145  143  144 1   
   146  143  146 1   
   147  143  148 1   
   148  144  145 2   
   149  144  152 1   
   150  146  149 1   
   151  146  150 1   
   152  146  151 1   
   153  152  153 1   
   154  152  161 1   
   155  153  154 1   
   156  153  156 1   
   157  153  162 1   
   158  154  155 2   
   159  154  167 1   
   160  156  157 1   
   161  156  163 1   
   162  156  164 1   
   163  157  158 1   
   164  157  165 1   
   165  157  166 1   
   166  158  159 1   
   167  158  160 1   
   168  167  168 1   
   169  167  172 1   
   170  168  169 1   
   171  168  170 1   
   172  168  171 1   
   173  174  175 1   
   174  174  176 1   
@<TRIPOS>SUBSTRUCTURE
     1 MOL         1 TEMP              0 ****  ****    0 ROOT
