@<TRIPOS>MOLECULE
MOL
  179   176     1     0     0
SMALL
resp


@<TRIPOS>ATOM
      1 C1          2.4190    2.3000    5.3950 c3        1 MOL     -0.321787
      2 C2          1.6650    2.1760    4.0410 c         1 MOL      0.576071
      3 O1          2.3240    2.0980    2.9900 o         1 MOL     -0.510669
      4 H1          2.3770    1.3470    5.9230 hc        1 MOL      0.098850
      5 H2          3.4600    2.5660    5.2090 hc        1 MOL      0.098850
      6 H3          1.9500    3.0730    6.0040 hc        1 MOL      0.098850
      7 N1          0.2670    2.1690    3.9630 n         1 MOL     -0.531915
      8 C3         -0.4600    2.0030    2.7390 c3        1 MOL      0.117802
      9 C4         -0.6670    3.3660    2.0620 c         1 MOL      0.408341
     10 O2         -1.6730    4.0610    2.2860 o         1 MOL     -0.492735
     11 C5         -1.8180    1.2630    2.9940 c3        1 MOL     -0.058711
     12 C6         -2.7590    1.1600    1.7950 c         1 MOL      0.581737
     13 O3         -3.9550    0.7570    1.9510 o         1 MOL     -0.689234
     14 O4         -2.2880    1.2850    0.6380 o         1 MOL     -0.689234
     15 H4         -0.1740    1.9150    4.8400 hn        1 MOL      0.298559
     16 H5          0.1370    1.4170    2.0330 h1        1 MOL      0.049825
     17 H6         -2.3480    1.7770    3.7930 hc        1 MOL      0.048334
     18 H7         -1.6500    0.2430    3.3410 hc        1 MOL      0.048334
     19 N2          0.2860    3.8280    1.2930 n         1 MOL     -0.316424
     20 C7          0.4530    5.1890    0.6940 c3        1 MOL      0.105692
     21 C8         -0.4440    5.5460   -0.4940 c         1 MOL      0.443575
     22 O5         -0.3030    6.6380   -1.0580 o         1 MOL     -0.529315
     23 C9          1.9410    5.1640    0.3250 c3        1 MOL      0.070852
     24 C10         2.7970    6.4130   -0.2020 c3        1 MOL     -0.113326
     25 C11         2.3480    7.7230    0.4210 c3        1 MOL      0.082139
     26 C12         3.1330    8.9040   -0.0880 c3        1 MOL      0.061701
     27 N3          2.6840   10.2550    0.3360 n4        1 MOL     -0.332597
     28 H8          1.0010    3.1370    1.1040 hn        1 MOL      0.259227
     29 H9          0.2150    5.9870    1.4030 h1        1 MOL      0.048764
     30 H10         2.2200    4.3720   -0.3680 hc        1 MOL      0.022196
     31 H11         2.3740    4.9850    1.3110 hc        1 MOL      0.022196
     32 H12         2.7150    6.5080   -1.2810 hc        1 MOL      0.044219
     33 H13         3.8320    6.3060    0.1230 hc        1 MOL      0.044219
     34 H14         2.3930    7.7410    1.5090 hc        1 MOL     -0.015855
     35 H15         1.2900    7.8170    0.1810 hc        1 MOL     -0.015855
     36 H16         3.1570    8.9560   -1.1810 hx        1 MOL      0.060011
     37 H17         4.1460    8.7730    0.3040 hx        1 MOL      0.060011
     38 H18         3.2070   11.0320   -0.0490 hn        1 MOL      0.319638
     39 H19         1.7200   10.4010    0.1100 hn        1 MOL      0.319638
     40 H20         2.8410   10.2720    1.3400 hn        1 MOL      0.319638
     41 N4         -1.4070    4.6600   -0.8770 n         1 MOL     -0.179320
     42 C13        -2.5910    5.0410   -1.7310 c3        1 MOL     -0.112012
     43 C14        -3.9510    4.5980   -1.0870 c         1 MOL      0.419729
     44 O6         -5.0560    4.7670   -1.5910 o         1 MOL     -0.519717
     45 C15        -2.4260    4.6350   -3.2300 c3        1 MOL     -0.174093
     46 C16        -2.1840    3.0930   -3.2920 c         1 MOL      0.818630
     47 O7         -1.9330    2.7110   -4.4800 o         1 MOL     -0.744136
     48 O8         -2.2210    2.2650   -2.3350 o         1 MOL     -0.744136
     49 H21        -1.1880    3.6950   -0.7060 hn        1 MOL      0.121220
     50 H22        -2.7120    6.1240   -1.6970 h1        1 MOL      0.106928
     51 H23        -1.5600    5.0720   -3.7220 hc        1 MOL      0.078303
     52 H24        -3.3390    4.8080   -3.7920 hc        1 MOL      0.078303
     53 N5         -3.8230    3.8890    0.0440 n         1 MOL      0.054286
     54 C17        -4.9990    3.6420    0.8590 c3        1 MOL     -0.208704
     55 C18        -5.9880    2.6520    0.2890 c         1 MOL      0.536444
     56 O9         -7.1500    2.7810    0.4310 o         1 MOL     -0.554869
     57 H25        -2.9250    3.7250    0.4680 hn        1 MOL     -0.059744
     58 H26        -5.4990    4.5890    1.0570 h1        1 MOL      0.108992
     59 H27        -4.7110    3.1780    1.7960 h1        1 MOL      0.108992
     60 N6         -5.4980    1.6650   -0.4910 n         1 MOL     -0.164743
     61 C19        -6.2490    0.6130   -1.2070 c3        1 MOL     -0.104123
     62 C20        -6.5960   -0.6030   -0.3330 c         1 MOL      0.470352
     63 O10        -7.4640   -1.3530   -0.7280 o         1 MOL     -0.556426
     64 C21        -5.5440    0.1770   -2.5130 c3        1 MOL     -0.117622
     65 C22        -4.3460   -0.7270   -2.3790 c         1 MOL      0.487442
     66 N7         -4.1970   -1.5640   -3.4120 n         1 MOL     -0.646637
     67 O11        -3.6720   -0.7300   -1.3210 o         1 MOL     -0.643719
     68 H28        -4.5070    1.6340   -0.6580 hn        1 MOL      0.126802
     69 H29        -7.2200    0.9990   -1.5240 h1        1 MOL      0.120067
     70 H30        -5.2860    1.0540   -3.1030 hc        1 MOL      0.078429
     71 H31        -6.3020   -0.3910   -3.0610 hc        1 MOL      0.078429
     72 H32        -4.7290   -1.4400   -4.2620 hn        1 MOL      0.346547
     73 H33        -3.4420   -2.2360   -3.3570 hn        1 MOL      0.346547
     74 N8         -5.9860   -0.7920    0.8110 n         1 MOL     -0.149412
     75 C23        -6.1740   -1.9690    1.7340 c3        1 MOL     -0.325227
     76 C24        -4.8300   -2.6750    2.1080 c         1 MOL      0.712247
     77 O12        -4.8070   -3.4130    3.0850 o         1 MOL     -0.600540
     78 H34        -5.1630   -0.2130    0.8610 hn        1 MOL      0.148707
     79 H35        -6.6560   -2.7750    1.1740 h1        1 MOL      0.144263
     80 H36        -6.6800   -1.7300    2.6660 h1        1 MOL      0.144263
     81 N9         -3.8310   -2.4260    1.3080 n         1 MOL     -0.756457
     82 C25        -2.6680   -3.3070    1.4360 c3        1 MOL      0.305516
     83 C26        -1.3210   -2.5360    1.3540 c         1 MOL      0.419147
     84 O13        -1.1070   -1.6490    0.5160 o         1 MOL     -0.659238
     85 C27        -2.5590   -4.3370    0.2480 c3        1 MOL     -0.259399
     86 C28        -3.9100   -5.0830    0.0400 ca        1 MOL      0.251252
     87 C29        -4.9800   -4.5080   -0.6750 ca        1 MOL     -0.295888
     88 C30        -3.9210   -6.3950    0.4510 ca        1 MOL     -0.295888
     89 C31        -6.1780   -5.2610   -0.9860 ca        1 MOL     -0.208556
     90 C32        -5.0820   -7.1430    0.1920 ca        1 MOL     -0.208556
     91 C33        -6.1730   -6.5910   -0.5720 ca        1 MOL      0.288063
     92 O14        -7.2880   -7.3370   -0.7780 oh        1 MOL     -0.471463
     93 H37        -3.9250   -1.6760    0.6390 hn        1 MOL      0.757438
     94 H38        -2.6840   -3.8340    2.3810 h1        1 MOL      0.040847
     95 H39        -1.7830   -5.0070    0.6050 hc        1 MOL      0.068547
     96 H40        -2.3000   -3.8860   -0.7120 hc        1 MOL      0.068547
     97 H41        -4.9210   -3.5470   -1.1560 ha        1 MOL      0.158363
     98 H42        -3.1450   -6.8770    1.0240 ha        1 MOL      0.158363
     99 H43        -6.9650   -4.8390   -1.5960 ha        1 MOL      0.149868
    100 H44        -5.2750   -8.1120    0.6420 ha        1 MOL      0.149868
    101 H45        -7.2980   -8.2090   -0.3710 ho        1 MOL      0.353177
    102 N10        -0.2980   -3.0680    2.0240 n         1 MOL     -0.432530
    103 C34         1.0830   -2.5500    1.9300 c3        1 MOL      0.032328
    104 C35         1.8380   -3.4300    0.9330 c         1 MOL      0.408464
    105 O15         2.2710   -4.5730    1.2230 o         1 MOL     -0.548755
    106 C36         1.7830   -2.5640    3.3060 c3        1 MOL      0.100017
    107 C37         0.9730   -2.0730    4.5470 c3        1 MOL      0.170524
    108 C38         3.0070   -1.6590    3.1110 c3        1 MOL     -0.237720
    109 C39         1.4710   -2.5510    5.9160 c3        1 MOL     -0.119550
    110 H46        -0.4290   -3.9290    2.5210 hn        1 MOL      0.289041
    111 H47         1.0130   -1.5410    1.5120 h1        1 MOL      0.139552
    112 H48         2.1500   -3.5520    3.5920 hc        1 MOL      0.011737
    113 H49        -0.0060   -2.5500    4.5420 hc        1 MOL     -0.054267
    114 H50         0.6810   -1.0220    4.5730 hc        1 MOL     -0.054267
    115 H51         3.7810   -1.8550    3.8600 hc        1 MOL      0.044332
    116 H52         3.5200   -1.8350    2.1630 hc        1 MOL      0.044332
    117 H53         2.7530   -0.5910    3.1090 hc        1 MOL      0.044332
    118 H54         1.4870   -3.6260    6.1020 hc        1 MOL      0.024203
    119 H55         2.5180   -2.2620    6.0300 hc        1 MOL      0.024203
    120 H56         0.8900   -2.0760    6.7100 hc        1 MOL      0.024203
    121 N11         1.9720   -2.9570   -0.2760 n         1 MOL     -0.029874
    122 C40         2.8010   -3.6390   -1.2450 c3        1 MOL     -0.411583
    123 C41         4.2650   -3.6380   -0.7170 c         1 MOL      0.485103
    124 O16         4.7150   -2.6910   -0.0360 o         1 MOL     -0.289002
    125 C42         2.6470   -2.9540   -2.5680 c3        1 MOL      0.286216
    126 O17         2.9350   -1.6140   -2.5980 oh        1 MOL     -0.627022
    127 H57         1.7890   -1.9710   -0.4470 hn        1 MOL      0.131289
    128 H58         2.4220   -4.6590   -1.2950 h1        1 MOL      0.135050
    129 H59         1.6190   -3.0940   -2.9230 h1        1 MOL     -0.003703
    130 H60         3.2710   -3.5100   -3.2690 h1        1 MOL     -0.003703
    131 H61         2.3240   -1.1860   -2.0140 ho        1 MOL      0.435520
    132 N12         4.9880   -4.7000   -1.0400 n         1 MOL     -0.438964
    133 C43         6.4560   -4.7950   -0.8780 c3        1 MOL      0.187855
    134 C44         7.1660   -3.4330   -1.1450 c         1 MOL      0.344874
    135 O18         8.0680   -3.0470   -0.4110 o         1 MOL     -0.491796
    136 C45         6.9980   -5.9270   -1.7910 c3        1 MOL     -0.437353
    137 H62         4.6030   -5.5470   -1.4360 hn        1 MOL      0.313834
    138 H63         6.6310   -4.9360    0.1920 h1        1 MOL      0.073178
    139 H64         8.0900   -5.8790   -1.7550 hc        1 MOL      0.127785
    140 H65         6.5470   -6.8700   -1.4700 hc        1 MOL      0.127785
    141 H66         6.7350   -5.8420   -2.8380 hc        1 MOL      0.127785
    142 N13         6.8090   -2.7660   -2.2440 n         1 MOL     -0.190548
    143 C46         7.3690   -1.4840   -2.7400 c3        1 MOL      0.123607
    144 C47         6.9370   -0.2600   -1.8820 c         1 MOL      0.368269
    145 O19         7.6250    0.7470   -1.8440 o         1 MOL     -0.524417
    146 C48         6.9860   -1.2130   -4.1940 c3        1 MOL     -0.393837
    147 H67         6.3860   -3.4100   -2.9080 hn        1 MOL      0.213974
    148 H68         8.4440   -1.5500   -2.6030 h1        1 MOL      0.072699
    149 H69         7.5420   -1.8980   -4.8310 hc        1 MOL      0.117109
    150 H70         5.9100   -1.3880   -4.2680 hc        1 MOL      0.117109
    151 H71         7.1520   -0.1480   -4.2720 hc        1 MOL      0.117109
    152 N14         5.7780   -0.2800   -1.2110 n         1 MOL     -0.095375
    153 C49         5.4150    0.7070   -0.1650 c3        1 MOL     -0.075129
    154 C50         6.0690    0.4550    1.2130 c         1 MOL      0.463709
    155 O20         6.2210    1.4300    1.9470 o         1 MOL     -0.552859
    156 C51         3.8900    0.8280    0.0730 c3        1 MOL      0.089180
    157 C52         3.1830    1.3280   -1.1210 c3        1 MOL      0.116713
    158 C53         1.7110    0.9420   -1.1440 c         1 MOL      0.635033
    159 O21         0.9020    1.7460   -0.8850 o         1 MOL     -0.739653
    160 O22         1.3880   -0.2830   -1.2050 o         1 MOL     -0.739653
    161 H72         5.2710   -1.1590   -1.2040 hn        1 MOL      0.026436
    162 H73         5.7900    1.6750   -0.4870 h1        1 MOL      0.084324
    163 H74         3.6710    1.5900    0.8250 hc        1 MOL     -0.018029
    164 H75         3.5150   -0.1310    0.4160 hc        1 MOL     -0.018029
    165 H76         3.5930    0.9450   -2.0470 hc        1 MOL     -0.031474
    166 H77         3.3830    2.3860   -1.2460 hc        1 MOL     -0.031474
    167 N15         6.4010   -0.8300    1.4580 n         1 MOL     -0.078408
    168 C54         7.2500   -1.2210    2.6330 c3        1 MOL     -0.220726
    169 H78         6.8900   -2.1650    3.0420 h1        1 MOL      0.097016
    170 H79         8.2850   -1.3360    2.3120 h1        1 MOL      0.097016
    171 H80         7.1900   -0.4470    3.3990 h1        1 MOL      0.097016
    172 H81         6.1240   -1.4600    0.7170 hn        1 MOL      0.067199
    173 Ca1        -1.1440    0.2590   -1.3570 Ca        1 MOL      1.799601
    174 O23        -0.2860    0.6620   -3.8990 oh        1 MOL     -0.881730
    175 H82         0.1200    0.4380   -4.7330 ho        1 MOL      0.420149
    176 H83        -0.8410    1.4210   -4.1020 ho        1 MOL      0.420149
    177 O24        -1.1330   -2.2100   -3.0600 oh        1 MOL     -0.881730
    178 H84        -0.8810   -3.1130   -2.8590 ho        1 MOL      0.420149
    179 H85        -1.0250   -2.1310   -4.0080 ho        1 MOL      0.420149
@<TRIPOS>BOND
     1    1    2 1   
     2    1    4 1   
     3    1    5 1   
     4    1    6 1   
     5    2    3 2   
     6    2    7 1   
     7    7    8 1   
     8    7   15 1   
     9    8    9 1   
    10    8   11 1   
    11    8   16 1   
    12    9   10 2   
    13    9   19 1   
    14   11   12 1   
    15   11   17 1   
    16   11   18 1   
    17   12   13 1   
    18   12   14 1   
    19   19   20 1   
    20   19   28 1   
    21   20   21 1   
    22   20   23 1   
    23   20   29 1   
    24   21   22 2   
    25   21   41 1   
    26   23   24 1   
    27   23   30 1   
    28   23   31 1   
    29   24   25 1   
    30   24   32 1   
    31   24   33 1   
    32   25   26 1   
    33   25   34 1   
    34   25   35 1   
    35   26   27 1   
    36   26   36 1   
    37   26   37 1   
    38   27   38 1   
    39   27   39 1   
    40   27   40 1   
    41   41   42 1   
    42   41   49 1   
    43   42   43 1   
    44   42   45 1   
    45   42   50 1   
    46   43   44 2   
    47   43   53 1   
    48   45   46 1   
    49   45   51 1   
    50   45   52 1   
    51   46   47 1   
    52   46   48 1   
    53   53   54 1   
    54   53   57 1   
    55   54   55 1   
    56   54   58 1   
    57   54   59 1   
    58   55   56 2   
    59   55   60 1   
    60   60   61 1   
    61   60   68 1   
    62   61   62 1   
    63   61   64 1   
    64   61   69 1   
    65   62   63 2   
    66   62   74 1   
    67   64   65 1   
    68   64   70 1   
    69   64   71 1   
    70   65   66 1   
    71   65   67 2   
    72   66   72 1   
    73   66   73 1   
    74   74   75 1   
    75   74   78 1   
    76   75   76 1   
    77   75   79 1   
    78   75   80 1   
    79   76   77 2   
    80   76   81 1   
    81   81   82 1   
    82   81   93 1   
    83   82   83 1   
    84   82   85 1   
    85   82   94 1   
    86   83   84 2   
    87   83  102 1   
    88   85   86 1   
    89   85   95 1   
    90   85   96 1   
    91   86   87 ar  
    92   86   88 ar  
    93   87   89 ar  
    94   87   97 1   
    95   88   90 ar  
    96   88   98 1   
    97   89   91 ar  
    98   89   99 1   
    99   90   91 ar  
   100   90  100 1   
   101   91   92 1   
   102   92  101 1   
   103  102  103 1   
   104  102  110 1   
   105  103  104 1   
   106  103  106 1   
   107  103  111 1   
   108  104  105 2   
   109  104  121 1   
   110  106  107 1   
   111  106  108 1   
   112  106  112 1   
   113  107  109 1   
   114  107  113 1   
   115  107  114 1   
   116  108  115 1   
   117  108  116 1   
   118  108  117 1   
   119  109  118 1   
   120  109  119 1   
   121  109  120 1   
   122  121  122 1   
   123  121  127 1   
   124  122  123 1   
   125  122  125 1   
   126  122  128 1   
   127  123  124 2   
   128  123  132 1   
   129  125  126 1   
   130  125  129 1   
   131  125  130 1   
   132  126  131 1   
   133  132  133 1   
   134  132  137 1   
   135  133  134 1   
   136  133  136 1   
   137  133  138 1   
   138  134  135 2   
   139  134  142 1   
   140  136  139 1   
   141  136  140 1   
   142  136  141 1   
   143  142  143 1   
   144  142  147 1   
   145  143  144 1   
   146  143  146 1   
   147  143  148 1   
   148  144  145 2   
   149  144  152 1   
   150  146  149 1   
   151  146  150 1   
   152  146  151 1   
   153  152  153 1   
   154  152  161 1   
   155  153  154 1   
   156  153  156 1   
   157  153  162 1   
   158  154  155 2   
   159  154  167 1   
   160  156  157 1   
   161  156  163 1   
   162  156  164 1   
   163  157  158 1   
   164  157  165 1   
   165  157  166 1   
   166  158  159 1   
   167  158  160 1   
   168  167  168 1   
   169  167  172 1   
   170  168  169 1   
   171  168  170 1   
   172  168  171 1   
   173  174  175 1   
   174  174  176 1   
   175  177  178 1   
   176  177  179 1   
@<TRIPOS>SUBSTRUCTURE
     1 MOL         1 TEMP              0 ****  ****    0 ROOT
