@<TRIPOS>MOLECULE
MOL
  178   175     1     0     0
SMALL
resp


@<TRIPOS>ATOM
      1 C1         -0.4870   -2.6580    5.5380 c3        1 MOL     -0.308259
      2 C2         -0.2530   -2.4000    4.0270 c         1 MOL      0.706550
      3 O1         -1.0030   -2.9840    3.2410 o         1 MOL     -0.565298
      4 H1         -0.0500   -1.8440    6.1170 hc        1 MOL      0.071349
      5 H2         -1.5570   -2.7100    5.7360 hc        1 MOL      0.071349
      6 H3         -0.0170   -3.5990    5.8230 hc        1 MOL      0.071349
      7 N1          0.7870   -1.6360    3.7330 n         1 MOL     -0.488666
      8 C3          1.3060   -1.4540    2.3870 c3        1 MOL      0.061892
      9 C4          1.8010   -2.8290    1.8760 c         1 MOL      0.392368
     10 O2          2.8220   -3.3600    2.2100 o         1 MOL     -0.554217
     11 C5          2.4840   -0.4350    2.4460 c3        1 MOL     -0.029234
     12 C6          3.1610   -0.1260    1.1250 c         1 MOL      0.868091
     13 O3          2.7450   -0.6100    0.0760 o         1 MOL     -0.813790
     14 O4          4.1840    0.6140    1.1440 o         1 MOL     -0.813790
     15 H4          1.4360   -1.5240    4.5010 hn        1 MOL      0.285651
     16 H5          0.4820   -1.1170    1.7590 h1        1 MOL      0.096724
     17 H6          3.2180   -0.8770    3.1230 hc        1 MOL      0.002624
     18 H7          2.1740    0.4380    3.0140 hc        1 MOL      0.002624
     19 N2          1.0620   -3.3090    0.9020 n         1 MOL     -0.133436
     20 C7          1.1760   -4.7210    0.4720 c3        1 MOL      0.071267
     21 C8          2.4960   -5.0320   -0.3080 c         1 MOL      0.394362
     22 O5          2.8430   -6.2490   -0.3340 o         1 MOL     -0.546501
     23 C9         -0.0410   -4.9120   -0.4510 c3        1 MOL     -0.214065
     24 H8          0.2160   -2.7980    0.6990 hn        1 MOL      0.212536
     25 H9          1.0500   -5.4170    1.2950 h1        1 MOL      0.071770
     26 H10        -0.9460   -4.8540    0.1640 hc        1 MOL      0.062015
     27 H11        -0.1380   -4.1280   -1.1980 hc        1 MOL      0.062015
     28 H12        -0.0590   -5.9240   -0.8630 hc        1 MOL      0.062015
     29 N3          3.1880   -3.9950   -0.8930 n         1 MOL     -0.087400
     30 C10         4.5100   -4.1030   -1.5240 c3        1 MOL     -0.018544
     31 C11         5.7510   -3.7570   -0.7090 c         1 MOL      0.336321
     32 O6          6.8400   -4.3100   -0.9910 o         1 MOL     -0.521303
     33 C12         4.4590   -3.3370   -2.8520 c3        1 MOL     -0.101244
     34 C13         4.1970   -1.8140   -2.7490 c         1 MOL      0.728920
     35 O7          3.0990   -1.2580   -3.0530 o         1 MOL     -0.655999
     36 O8          5.1810   -1.0940   -2.4740 o         1 MOL     -0.655999
     37 H13         2.8060   -3.0760   -0.7020 hn        1 MOL      0.015672
     38 H14         4.6960   -5.1300   -1.8520 h1        1 MOL      0.095037
     39 H15         3.6720   -3.6990   -3.5090 hc        1 MOL      0.020895
     40 H16         5.3470   -3.5540   -3.4420 hc        1 MOL      0.020895
     41 N4          5.6630   -2.9170    0.3270 n         1 MOL      0.091938
     42 C14         6.7340   -2.6680    1.2360 c3        1 MOL     -0.322555
     43 C15         7.7080   -1.4690    0.8700 c         1 MOL      0.579566
     44 O9          8.9850   -1.5530    1.0660 o         1 MOL     -0.564300
     45 H17         4.7170   -2.6610    0.5440 hn        1 MOL      0.100283
     46 H18         7.2770   -3.5990    1.3900 h1        1 MOL      0.117063
     47 H19         6.2510   -2.2570    2.1180 h1        1 MOL      0.117063
     48 N5          7.1900   -0.3030    0.4930 n         1 MOL     -0.484463
     49 C16         7.9340    0.9010    0.0300 c3        1 MOL      0.024946
     50 C17         7.4260    2.2270    0.6800 c         1 MOL      0.422064
     51 O10         7.8600    3.3570    0.2670 o         1 MOL     -0.526132
     52 C18         7.7150    0.9920   -1.5080 c3        1 MOL     -0.160000
     53 C19         8.3970   -0.0470   -2.2990 c         1 MOL      0.752100
     54 N6          7.7900   -1.0500   -2.7900 n         1 MOL     -0.768508
     55 O11         9.5650   -0.0030   -2.5280 o         1 MOL     -0.672307
     56 H20         6.1870   -0.3080    0.3430 hn        1 MOL      0.360260
     57 H21         8.9810    0.7750    0.3140 h1        1 MOL      0.126276
     58 H22         8.1900    1.9240   -1.8350 hc        1 MOL      0.055215
     59 H23         6.6750    0.9520   -1.8160 hc        1 MOL      0.055215
     60 H24         6.8490   -1.3400   -2.5720 hn        1 MOL      0.330223
     61 H25         8.4510   -1.6630   -3.2400 hn        1 MOL      0.330223
     62 N7          6.5160    2.1960    1.6550 n         1 MOL     -0.316421
     63 C20         6.1630    3.3690    2.5420 c3        1 MOL     -0.040262
     64 C21         4.8890    4.1250    2.0860 c         1 MOL      0.571217
     65 O12         4.7990    5.3090    2.4040 o         1 MOL     -0.576037
     66 H26         6.0170    1.3200    1.7530 hn        1 MOL      0.202212
     67 H27         7.0220    4.0220    2.6280 h1        1 MOL      0.079664
     68 H28         5.9960    3.0950    3.5900 h1        1 MOL      0.079664
     69 N8          3.8910    3.4830    1.3860 n         1 MOL     -0.456321
     70 C22         2.5550    4.1330    1.0590 c3        1 MOL     -0.170880
     71 C23         1.4240    3.0980    0.9020 c         1 MOL      0.617677
     72 O13         1.5210    2.2520    0.0170 o         1 MOL     -0.606477
     73 C24         2.6450    4.9530   -0.2740 c3        1 MOL      0.321297
     74 C25         1.3510    5.6160   -0.6350 c3        1 MOL     -0.060732
     75 O14         3.4650    6.0570   -0.0480 oh        1 MOL     -0.635246
     76 H29         3.9300    2.4780    1.3020 hn        1 MOL      0.299275
     77 H30         2.3440    4.7210    1.9590 h1        1 MOL      0.113888
     78 H31         2.9970    4.3020   -1.0730 h1        1 MOL      0.068001
     79 H32         4.1450    5.7260    0.5520 ho        1 MOL      0.404852
     80 H33         0.5740    4.8600   -0.7530 hc        1 MOL      0.019634
     81 H34         1.0290    6.2620    0.1680 hc        1 MOL      0.019634
     82 H35         1.4000    6.1690   -1.5700 hc        1 MOL      0.019634
     83 N9          0.4130    3.2340    1.7930 n         1 MOL     -0.549831
     84 C26        -0.8180    2.4940    1.7040 c3        1 MOL      0.095389
     85 C27        -1.6870    3.0470    0.5760 c         1 MOL      0.422386
     86 O15        -1.8690    4.2160    0.4180 o         1 MOL     -0.552044
     87 C28        -1.5960    2.3590    3.0780 c3        1 MOL      0.117562
     88 C29        -0.6310    2.1730    4.3110 c3        1 MOL      0.177045
     89 C30        -2.4000    1.1190    2.9850 c3        1 MOL     -0.251604
     90 C31        -1.3460    2.1750    5.6430 c3        1 MOL     -0.266358
     91 H36         0.4820    3.9000    2.5450 hn        1 MOL      0.305927
     92 H37        -0.5000    1.4910    1.4300 h1        1 MOL      0.092769
     93 H38        -2.1270    3.3060    3.2140 hc        1 MOL      0.003882
     94 H39         0.0430    3.0310    4.4210 hc        1 MOL     -0.049599
     95 H40        -0.0120    1.3000    4.0860 hc        1 MOL     -0.049599
     96 H41        -3.1800    1.2750    2.2400 hc        1 MOL      0.027219
     97 H42        -1.8160    0.2030    2.8700 hc        1 MOL      0.027219
     98 H43        -2.9620    0.8900    3.8890 hc        1 MOL      0.027219
     99 H44        -0.6700    1.9550    6.4560 hc        1 MOL      0.057645
    100 H45        -1.8640    3.1270    5.7620 hc        1 MOL      0.057645
    101 H46        -2.1740    1.4670    5.7180 hc        1 MOL      0.057645
    102 N10        -2.3060    2.1920   -0.3110 n         1 MOL      0.004467
    103 C32        -3.4630    2.4570   -1.1650 c3        1 MOL      0.003091
    104 C33        -4.7620    1.7840   -0.6820 c         1 MOL      0.427202
    105 O16        -4.7200    0.8130    0.0680 o         1 MOL     -0.366342
    106 C34        -3.0750    1.9670   -2.5870 c3        1 MOL     -0.000647
    107 C35        -1.6660    2.4080   -3.1280 c         1 MOL      0.554738
    108 O17        -0.7120    1.5550   -3.0020 o         1 MOL     -0.655976
    109 O18        -1.5630    3.4600   -3.7800 o         1 MOL     -0.655976
    110 H47        -1.8490    1.3030   -0.4400 hn        1 MOL      0.021419
    111 H48        -3.5920    3.5310   -1.2830 h1        1 MOL      0.043612
    112 H49        -3.8420    2.3020   -3.2890 hc        1 MOL      0.008358
    113 H50        -3.0000    0.8790   -2.6230 hc        1 MOL      0.008358
    114 N11        -5.8770    2.2310   -1.2110 n         1 MOL     -0.639927
    115 C36        -7.1660    1.6720   -0.7010 c3        1 MOL      0.315117
    116 C37        -7.2560    0.1130   -0.6580 c         1 MOL      0.106529
    117 O19        -7.5500   -0.3080    0.4550 o         1 MOL     -0.406568
    118 C38        -8.4330    2.3810   -1.2600 c3        1 MOL     -0.208610
    119 C39        -9.6600    1.7920   -0.6230 ca        1 MOL      0.092668
    120 C40        -9.8050    1.7330    0.7800 ca        1 MOL     -0.236966
    121 C41       -10.4250    0.8340   -1.3410 ca        1 MOL     -0.236966
    122 C42       -10.6940    0.8400    1.4100 ca        1 MOL      0.005392
    123 C43       -11.2560   -0.1100   -0.7230 ca        1 MOL      0.005392
    124 C44       -11.4540   -0.0250    0.6260 ca        1 MOL     -0.210866
    125 H51        -5.8910    2.9520   -1.9070 hn        1 MOL      0.348152
    126 H52        -7.2020    1.8570    0.3720 h1        1 MOL      0.089580
    127 H53        -8.3810    2.2750   -2.3380 hc        1 MOL      0.076245
    128 H54        -8.3750    3.4500   -1.0500 hc        1 MOL      0.076245
    129 H55        -9.1530    2.3020    1.4260 ha        1 MOL      0.123000
    130 H56       -10.3570    0.9270   -2.4070 ha        1 MOL      0.123000
    131 H57       -10.7930    0.7570    2.4840 ha        1 MOL      0.090342
    132 H58       -11.8040   -0.7810   -1.3610 ha        1 MOL      0.090342
    133 H59       -12.0450   -0.8150    1.0590 ha        1 MOL      0.120678
    134 N12        -6.9590   -0.6030   -1.7190 n         1 MOL      0.051182
    135 C45        -6.9650   -2.0660   -1.6670 c3        1 MOL     -0.002986
    136 C46        -5.9600   -2.7510   -0.7500 c         1 MOL      0.206894
    137 O20        -6.0900   -3.9400   -0.4970 o         1 MOL     -0.480255
    138 C47        -6.5950   -2.4490   -3.0930 c3        1 MOL     -0.001856
    139 C48        -6.8230   -1.2250   -3.9730 c3        1 MOL     -0.129971
    140 C49        -6.6630   -0.0310   -3.0110 c3        1 MOL      0.045827
    141 H60        -7.9960   -2.4160   -1.6160 h1        1 MOL      0.084373
    142 H61        -5.5210   -2.6570   -3.1600 hc        1 MOL      0.041684
    143 H62        -7.1620   -3.3090   -3.4360 hc        1 MOL      0.041684
    144 H63        -6.0730   -1.2160   -4.7710 hc        1 MOL      0.041169
    145 H64        -7.8240   -1.1170   -4.3850 hc        1 MOL      0.041169
    146 H65        -5.6680    0.4080   -3.0510 h1        1 MOL      0.018725
    147 H66        -7.3440    0.7830   -3.2460 h1        1 MOL      0.018725
    148 N13        -4.9270   -2.0630   -0.2230 n         1 MOL     -0.045183
    149 C50        -3.9750   -2.6860    0.6310 c3        1 MOL     -0.044896
    150 C51        -4.4380   -2.6060    2.1100 c         1 MOL      0.439747
    151 O21        -4.2760   -3.5230    2.9070 o         1 MOL     -0.542360
    152 C52        -2.6220   -1.9480    0.5040 c3        1 MOL      0.042762
    153 C53        -2.1950   -1.9450   -0.9770 c3        1 MOL     -0.138709
    154 C54        -0.7790   -1.2800   -0.9960 c         1 MOL      0.678655
    155 O22        -0.6370   -0.1570   -0.4850 o         1 MOL     -0.766117
    156 O23         0.2140   -1.6960   -1.6430 o         1 MOL     -0.766117
    157 H67        -4.8590   -1.0600   -0.3730 hn        1 MOL      0.148805
    158 H68        -3.7660   -3.7220    0.3480 h1        1 MOL      0.080894
    159 H69        -1.9240   -2.5110    1.1250 hc        1 MOL      0.028984
    160 H70        -2.6940   -0.9140    0.8520 hc        1 MOL      0.028984
    161 H71        -2.9040   -1.3140   -1.5210 hc        1 MOL      0.040007
    162 H72        -2.1460   -2.9270   -1.4440 hc        1 MOL      0.040007
    163 N14        -5.1840   -1.5290    2.4120 n         1 MOL     -0.065491
    164 C55        -5.9550   -1.5320    3.6800 c3        1 MOL     -0.234285
    165 H73        -5.5910   -0.7360    4.3290 h1        1 MOL      0.092135
    166 H74        -7.0120   -1.3700    3.4640 h1        1 MOL      0.092135
    167 H75        -5.8300   -2.4930    4.1800 h1        1 MOL      0.092135
    168 H76        -5.3060   -0.8500    1.6640 hn        1 MOL      0.098793
    169 Ca1         1.5330    0.5790   -1.9350 Ca        1 MOL      1.766588
    170 O24         4.1150    1.4340   -1.6810 oh        1 MOL     -0.826912
    171 H77         4.6070    0.6370   -1.8880 ho        1 MOL      0.396052
    172 H78         3.9810    1.3860   -0.7340 ho        1 MOL      0.396052
    173 O25         1.9660    0.6960   -4.8870 oh        1 MOL     -0.826912
    174 H79         2.4470    0.8100   -5.6980 ho        1 MOL      0.396052
    175 H80         1.0780    0.9860   -5.0940 ho        1 MOL      0.396052
    176 O26         1.4750    3.2320   -2.9790 oh        1 MOL     -0.826912
    177 H81         1.6130    3.8110   -3.7240 ho        1 MOL      0.396052
    178 H82         0.5200    3.1970   -2.8790 ho        1 MOL      0.396052
@<TRIPOS>BOND
     1    1    2 1   
     2    1    4 1   
     3    1    5 1   
     4    1    6 1   
     5    2    3 2   
     6    2    7 1   
     7    7    8 1   
     8    7   15 1   
     9    8    9 1   
    10    8   11 1   
    11    8   16 1   
    12    9   10 2   
    13    9   19 1   
    14   11   12 1   
    15   11   17 1   
    16   11   18 1   
    17   12   13 1   
    18   12   14 1   
    19   19   20 1   
    20   19   24 1   
    21   20   21 1   
    22   20   23 1   
    23   20   25 1   
    24   21   22 2   
    25   21   29 1   
    26   23   26 1   
    27   23   27 1   
    28   23   28 1   
    29   29   30 1   
    30   29   37 1   
    31   30   31 1   
    32   30   33 1   
    33   30   38 1   
    34   31   32 2   
    35   31   41 1   
    36   33   34 1   
    37   33   39 1   
    38   33   40 1   
    39   34   35 1   
    40   34   36 1   
    41   41   42 1   
    42   41   45 1   
    43   42   43 1   
    44   42   46 1   
    45   42   47 1   
    46   43   44 2   
    47   43   48 1   
    48   48   49 1   
    49   48   56 1   
    50   49   50 1   
    51   49   52 1   
    52   49   57 1   
    53   50   51 2   
    54   50   62 1   
    55   52   53 1   
    56   52   58 1   
    57   52   59 1   
    58   53   54 1   
    59   53   55 2   
    60   54   60 1   
    61   54   61 1   
    62   62   63 1   
    63   62   66 1   
    64   63   64 1   
    65   63   67 1   
    66   63   68 1   
    67   64   65 2   
    68   64   69 1   
    69   69   70 1   
    70   69   76 1   
    71   70   71 1   
    72   70   73 1   
    73   70   77 1   
    74   71   72 2   
    75   71   83 1   
    76   73   74 1   
    77   73   75 1   
    78   73   78 1   
    79   74   80 1   
    80   74   81 1   
    81   74   82 1   
    82   75   79 1   
    83   83   84 1   
    84   83   91 1   
    85   84   85 1   
    86   84   87 1   
    87   84   92 1   
    88   85   86 2   
    89   85  102 1   
    90   87   88 1   
    91   87   89 1   
    92   87   93 1   
    93   88   90 1   
    94   88   94 1   
    95   88   95 1   
    96   89   96 1   
    97   89   97 1   
    98   89   98 1   
    99   90   99 1   
   100   90  100 1   
   101   90  101 1   
   102  102  103 1   
   103  102  110 1   
   104  103  104 1   
   105  103  106 1   
   106  103  111 1   
   107  104  105 2   
   108  104  114 1   
   109  106  107 1   
   110  106  112 1   
   111  106  113 1   
   112  107  108 1   
   113  107  109 1   
   114  114  115 1   
   115  114  125 1   
   116  115  116 1   
   117  115  118 1   
   118  115  126 1   
   119  116  117 2   
   120  116  134 1   
   121  118  119 1   
   122  118  127 1   
   123  118  128 1   
   124  119  120 ar  
   125  119  121 ar  
   126  120  122 ar  
   127  120  129 1   
   128  121  123 ar  
   129  121  130 1   
   130  122  124 ar  
   131  122  131 1   
   132  123  124 ar  
   133  123  132 1   
   134  124  133 1   
   135  134  135 1   
   136  134  140 1   
   137  135  136 1   
   138  135  138 1   
   139  135  141 1   
   140  136  137 2   
   141  136  148 1   
   142  138  139 1   
   143  138  142 1   
   144  138  143 1   
   145  139  140 1   
   146  139  144 1   
   147  139  145 1   
   148  140  146 1   
   149  140  147 1   
   150  148  149 1   
   151  148  157 1   
   152  149  150 1   
   153  149  152 1   
   154  149  158 1   
   155  150  151 2   
   156  150  163 1   
   157  152  153 1   
   158  152  159 1   
   159  152  160 1   
   160  153  154 1   
   161  153  161 1   
   162  153  162 1   
   163  154  155 1   
   164  154  156 1   
   165  163  164 1   
   166  163  168 1   
   167  164  165 1   
   168  164  166 1   
   169  164  167 1   
   170  170  171 1   
   171  170  172 1   
   172  173  174 1   
   173  173  175 1   
   174  176  177 1   
   175  176  178 1   
@<TRIPOS>SUBSTRUCTURE
     1 MOL         1 TEMP              0 ****  ****    0 ROOT
