@<TRIPOS>MOLECULE
MOL
  182   178     1     0     0
SMALL
resp


@<TRIPOS>ATOM
      1 C1          2.5560    2.7780    4.5670 c3        1 MOL     -0.522031
      2 C2          1.5840    2.5100    3.3630 c         1 MOL      0.564839
      3 O1          2.1130    2.4320    2.2310 o         1 MOL     -0.537485
      4 H1          3.5640    2.4630    4.2960 hc        1 MOL      0.141006
      5 H2          2.5590    3.8410    4.8020 hc        1 MOL      0.141006
      6 H3          2.2210    2.2130    5.4370 hc        1 MOL      0.141006
      7 N1          0.2880    2.2230    3.5340 n         1 MOL     -0.341603
      8 C3         -0.6480    2.0280    2.4710 c3        1 MOL      0.009289
      9 C4         -1.0370    3.4060    1.8750 c         1 MOL      0.324238
     10 O2         -1.9880    3.9820    2.3140 o         1 MOL     -0.448174
     11 C5         -1.8530    1.2210    2.9900 c3        1 MOL     -0.044880
     12 C6         -2.9890    1.0340    1.9530 c         1 MOL      0.557447
     13 O3         -4.1660    0.9240    2.4240 o         1 MOL     -0.638587
     14 O4         -2.7920    0.9420    0.7020 o         1 MOL     -0.638587
     15 H4         -0.0750    2.2400    4.4840 hn        1 MOL      0.263414
     16 H5         -0.1990    1.4510    1.6570 h1        1 MOL     -0.003825
     17 H6         -2.3190    1.6120    3.8990 hc        1 MOL      0.045955
     18 H7         -1.4130    0.2720    3.2840 hc        1 MOL      0.045955
     19 N2         -0.3630    3.9040    0.8040 n         1 MOL     -0.296789
     20 C7         -0.5960    5.2510    0.2930 c3        1 MOL      0.255486
     21 C8         -1.8840    5.5540   -0.4790 c         1 MOL      0.279137
     22 O5         -2.3550    6.7010   -0.4990 o         1 MOL     -0.542807
     23 C9          0.5230    5.8240   -0.5800 c3        1 MOL     -0.448578
     24 C10         1.8080    5.9890    0.2270 c3        1 MOL      0.206251
     25 C11         1.7870    7.1350    1.2670 c3        1 MOL     -0.154678
     26 C12         3.2170    7.5230    1.5640 c3        1 MOL      0.007200
     27 N3          4.0480    6.5190    2.2470 n4        1 MOL     -0.432770
     28 H8          0.1870    3.2300    0.2950 hn        1 MOL      0.340245
     29 H9         -0.5820    5.8670    1.1910 h1        1 MOL      0.007929
     30 H10         0.1500    6.8440   -0.7230 hc        1 MOL      0.135858
     31 H11         0.7310    5.2280   -1.4680 hc        1 MOL      0.135858
     32 H12         2.5930    6.2420   -0.4850 hc        1 MOL     -0.021912
     33 H13         1.9560    4.9630    0.5730 hc        1 MOL     -0.021912
     34 H14         1.2990    6.7590    2.1660 hc        1 MOL      0.092445
     35 H15         1.1930    7.9610    0.8750 hc        1 MOL      0.092445
     36 H16         3.1240    8.3830    2.2250 hx        1 MOL      0.093819
     37 H17         3.7220    7.8860    0.6700 hx        1 MOL      0.093819
     38 H18         4.1730    6.6590    3.2420 hn        1 MOL      0.352677
     39 H19         3.7020    5.5860    2.0800 hn        1 MOL      0.352677
     40 H20         4.9500    6.6130    1.8100 hn        1 MOL      0.352677
     41 N4         -2.4600    4.6210   -1.1870 n         1 MOL     -0.044903
     42 C13        -3.6960    4.9040   -1.9720 c3        1 MOL     -0.120569
     43 C14        -4.9400    4.4420   -1.2350 c         1 MOL      0.379577
     44 O6         -6.0380    4.3690   -1.8030 o         1 MOL     -0.511576
     45 C15        -3.6930    4.1830   -3.3610 c3        1 MOL     -0.208596
     46 C16        -3.5220    2.6380   -3.3380 c         1 MOL      0.710347
     47 O7         -3.5580    2.1240   -4.4540 o         1 MOL     -0.664294
     48 O8         -3.1550    1.9880   -2.2600 o         1 MOL     -0.664294
     49 H21        -2.0150    3.7190   -1.2300 hn        1 MOL      0.045419
     50 H22        -3.8310    5.9550   -2.2000 h1        1 MOL      0.161414
     51 H23        -3.0520    4.6750   -4.0920 hc        1 MOL      0.088022
     52 H24        -4.6680    4.2800   -3.8390 hc        1 MOL      0.088022
     53 N5         -4.7970    3.8220   -0.0320 n         1 MOL     -0.035503
     54 C17        -5.7650    3.2460    0.8360 c3        1 MOL     -0.316013
     55 C18        -6.4490    2.0250    0.2980 c         1 MOL      0.640226
     56 O9         -7.6320    1.8170    0.5170 o         1 MOL     -0.616108
     57 H25        -3.8400    3.8790    0.2980 hn        1 MOL      0.136100
     58 H26        -6.6010    3.9420    0.9340 h1        1 MOL      0.130846
     59 H27        -5.3450    2.9490    1.8000 h1        1 MOL      0.130846
     60 N6         -5.8350    1.2160   -0.5640 n         1 MOL     -0.157461
     61 C19        -6.3580   -0.0370   -1.1340 c3        1 MOL     -0.012258
     62 C20        -6.2230   -1.2350   -0.1410 c         1 MOL      0.422679
     63 O10        -6.3820   -2.3780   -0.4700 o         1 MOL     -0.495389
     64 C21        -5.9150   -0.3380   -2.5970 c3        1 MOL     -0.409960
     65 C22        -4.8250   -1.3680   -2.7510 c         1 MOL      0.567202
     66 N7         -4.8390   -2.0000   -3.8400 n         1 MOL     -0.702750
     67 O11        -3.8320   -1.3940   -2.0140 o         1 MOL     -0.526479
     68 H28        -4.8870    1.3520   -0.8870 hn        1 MOL      0.048953
     69 H29        -7.4360    0.1010   -1.1660 h1        1 MOL      0.118769
     70 H30        -5.7410    0.5530   -3.2050 hc        1 MOL      0.160792
     71 H31        -6.8480   -0.7730   -2.9740 hc        1 MOL      0.160792
     72 H32        -5.6820   -1.9890   -4.3830 hn        1 MOL      0.356359
     73 H33        -4.0970   -2.6430   -4.0870 hn        1 MOL      0.356359
     74 N8         -5.9270   -1.0050    1.1520 n         1 MOL     -0.231236
     75 C23        -5.9290   -2.0020    2.1930 c3        1 MOL     -0.440330
     76 C24        -4.6290   -2.7970    2.4130 c         1 MOL      0.583753
     77 O12        -4.6580   -3.7510    3.2370 o         1 MOL     -0.564098
     78 H34        -5.4870   -0.1130    1.3280 hn        1 MOL      0.284135
     79 H35        -6.6890   -2.7660    1.9940 h1        1 MOL      0.197747
     80 H36        -6.0870   -1.4280    3.1080 h1        1 MOL      0.197747
     81 N9         -3.5320   -2.5320    1.6650 n         1 MOL     -0.248914
     82 C25        -2.3800   -3.3550    1.4690 c3        1 MOL      0.187928
     83 C26        -1.0950   -2.5670    1.3940 c         1 MOL      0.343976
     84 O13        -1.1150   -1.5270    0.7520 o         1 MOL     -0.574609
     85 C27        -2.5630   -4.2190    0.2240 c3        1 MOL      0.390526
     86 C28        -3.5590   -5.3120    0.2200 ca        1 MOL      0.202904
     87 C29        -3.4590   -6.3290    1.1570 ca        1 MOL     -0.414319
     88 C30        -4.5580   -5.2420   -0.7300 ca        1 MOL     -0.414319
     89 C31        -4.4800   -7.2710    1.3090 ca        1 MOL     -0.040976
     90 C32        -5.5160   -6.3100   -0.6690 ca        1 MOL     -0.040976
     91 C33        -5.5040   -7.3260    0.3260 ca        1 MOL      0.150569
     92 O14        -6.5570   -8.1390    0.4500 oh        1 MOL     -0.474965
     93 H37        -3.6930   -1.7680    1.0090 hn        1 MOL      0.107474
     94 H38        -2.2460   -4.0330    2.3110 h1        1 MOL     -0.053009
     95 H39        -1.6240   -4.7480    0.0610 hc        1 MOL     -0.129659
     96 H40        -2.7700   -3.5930   -0.6430 hc        1 MOL     -0.129659
     97 H41        -2.6550   -6.3020    1.8860 ha        1 MOL      0.204359
     98 H42        -4.7660   -4.4070   -1.3790 ha        1 MOL      0.204359
     99 H43        -4.3400   -8.0210    2.0770 ha        1 MOL      0.097487
    100 H44        -6.3610   -6.2320   -1.3470 ha        1 MOL      0.097487
    101 H45        -7.3690   -7.9230    0.0010 ho        1 MOL      0.377001
    102 N10         0.0610   -3.0870    1.8130 n         1 MOL     -0.253775
    103 C34         1.3880   -2.4850    1.7650 c3        1 MOL     -0.097811
    104 C35         2.3090   -3.3510    0.8630 c         1 MOL      0.433078
    105 O15         2.4020   -4.5560    1.1270 o         1 MOL     -0.517566
    106 C36         1.9930   -2.2960    3.1500 c3        1 MOL      0.292058
    107 C37         1.1040   -1.5990    4.2470 c3        1 MOL     -0.052236
    108 C38         3.4130   -1.6870    3.1870 c3        1 MOL     -0.369929
    109 C39         1.3160   -1.9730    5.7980 c3        1 MOL     -0.170283
    110 H46         0.0190   -3.9620    2.3220 hn        1 MOL      0.218628
    111 H47         1.2430   -1.4870    1.3280 h1        1 MOL      0.196540
    112 H48         2.1350   -3.3180    3.5080 hc        1 MOL     -0.011902
    113 H49         0.0270   -1.7470    4.1670 hc        1 MOL      0.021977
    114 H50         1.3970   -0.5550    4.1160 hc        1 MOL      0.021977
    115 H51         3.3420   -0.6410    2.8620 hc        1 MOL      0.082312
    116 H52         3.8010   -1.7300    4.2100 hc        1 MOL      0.082312
    117 H53         4.2400   -2.2280    2.7260 hc        1 MOL      0.082312
    118 H54         1.0120   -3.0100    5.8940 hc        1 MOL      0.045361
    119 H55         2.3470   -2.0010    6.1490 hc        1 MOL      0.045361
    120 H56         0.7200   -1.2790    6.4020 hc        1 MOL      0.045361
    121 N11         2.9490   -2.7140   -0.1730 n         1 MOL     -0.230798
    122 C40         3.9760   -3.3170   -1.0860 c3        1 MOL      0.013526
    123 C41         5.5000   -3.1770   -0.6250 c         1 MOL      0.355923
    124 O16         5.8600   -2.3460    0.2140 o         1 MOL     -0.335735
    125 C42         3.8090   -2.7790   -2.4700 c3        1 MOL     -0.232380
    126 O17         4.2710   -1.5040   -2.6830 oh        1 MOL     -0.411129
    127 H57         2.6070   -1.7900   -0.3840 hn        1 MOL      0.212674
    128 H58         3.8140   -4.3950   -1.0890 h1        1 MOL      0.077981
    129 H59         2.7620   -2.8730   -2.7550 h1        1 MOL      0.119119
    130 H60         4.1910   -3.4820   -3.2200 h1        1 MOL      0.119119
    131 H61         3.6490   -1.0210   -3.2310 ho        1 MOL      0.410285
    132 N12         6.3580   -4.0120   -1.2180 n         1 MOL     -0.295116
    133 C43         7.7880   -3.9160   -1.0780 c3        1 MOL      0.082364
    134 C44         8.3280   -2.4880   -1.4160 c         1 MOL      0.365040
    135 O18         9.2380   -1.8410   -0.8090 o         1 MOL     -0.495491
    136 C45         8.4810   -5.0880   -1.8220 c3        1 MOL     -0.128688
    137 H62         6.0080   -4.8130   -1.7290 hn        1 MOL      0.257951
    138 H63         7.9310   -4.0980   -0.0060 h1        1 MOL      0.066448
    139 H64         7.9370   -6.0160   -1.6200 hc        1 MOL      0.051691
    140 H65         8.3650   -4.8450   -2.8730 hc        1 MOL      0.051691
    141 H66         9.5400   -5.2260   -1.5970 hc        1 MOL      0.051691
    142 N13         7.6360   -1.8670   -2.3920 n         1 MOL     -0.231379
    143 C46         7.8370   -0.4560   -2.7680 c3        1 MOL      0.046125
    144 C47         7.2240    0.5980   -1.7670 c         1 MOL      0.290033
    145 O19         7.8560    1.5990   -1.5000 o         1 MOL     -0.491099
    146 C48         7.2490   -0.2270   -4.2070 c3        1 MOL     -0.251972
    147 H67         7.0040   -2.4520   -2.9090 hn        1 MOL      0.209429
    148 H68         8.8870   -0.1720   -2.8860 h1        1 MOL      0.106971
    149 H69         7.7660   -0.8260   -4.9480 hc        1 MOL      0.070813
    150 H70         6.1580   -0.3380   -4.2130 hc        1 MOL      0.070813
    151 H71         7.4060    0.8180   -4.4850 hc        1 MOL      0.070813
    152 N14         6.0840    0.2850   -1.1050 n         1 MOL      0.262824
    153 C49         5.4160    1.1890   -0.1960 c3        1 MOL     -0.110397
    154 C50         6.1190    1.2660    1.1810 c         1 MOL      0.383440
    155 O20         6.4210    2.3330    1.7450 o         1 MOL     -0.572572
    156 C51         3.9500    0.7770   -0.0630 c3        1 MOL      0.156636
    157 C52         3.0260    1.5440   -1.0940 c3        1 MOL     -0.358682
    158 C53         1.6750    0.8910   -0.8650 c         1 MOL      0.906879
    159 O21         0.6870    1.5890   -0.5230 o         1 MOL     -0.790727
    160 O22         1.3680   -0.2770   -1.2790 o         1 MOL     -0.790727
    161 H72         5.5940   -0.5510   -1.4040 hn        1 MOL     -0.123731
    162 H73         5.5240    2.1970   -0.6000 h1        1 MOL      0.049065
    163 H74         3.6480    1.0590    0.9440 hc        1 MOL     -0.046437
    164 H75         3.8840   -0.3070   -0.1950 hc        1 MOL     -0.046437
    165 H76         3.5160    1.4860   -2.0670 hc        1 MOL      0.064569
    166 H77         2.8880    2.5920   -0.8210 hc        1 MOL      0.064569
    167 N15         6.5960    0.1110    1.5740 n         1 MOL     -0.029282
    168 C54         7.5830   -0.0820    2.7120 c3        1 MOL     -0.233782
    169 H78         8.5890    0.1520    2.3640 h1        1 MOL      0.100771
    170 H79         7.3200    0.5800    3.5370 h1        1 MOL      0.100771
    171 H80         7.5490   -1.1170    3.0520 h1        1 MOL      0.100771
    172 H81         6.4120   -0.7360    1.0550 hn        1 MOL      0.084330
    173 Ca1        -1.5540    0.1750   -1.4380 Ca        1 MOL      1.753922
    174 O23        -2.1640   -0.1040   -4.2150 oh        1 MOL     -0.786693
    175 H82        -2.3510   -0.4500   -5.0920 ho        1 MOL      0.386468
    176 H83        -2.6260    0.7280   -4.1760 ho        1 MOL      0.386468
    177 O24         0.1250    1.7490   -3.4640 oh        1 MOL     -0.786693
    178 H84         0.2630    1.7840   -4.4080 ho        1 MOL      0.386468
    179 H85         0.5140    2.5580   -3.1360 ho        1 MOL      0.386468
    180 O25        -0.5060   -2.0540   -2.6330 oh        1 MOL     -0.786693
    181 H86         0.1340   -2.6090   -2.1780 ho        1 MOL      0.386468
    182 H87        -0.2620   -2.1230   -3.5580 ho        1 MOL      0.386468
@<TRIPOS>BOND
     1    1    2 1   
     2    1    4 1   
     3    1    5 1   
     4    1    6 1   
     5    2    3 2   
     6    2    7 1   
     7    7    8 1   
     8    7   15 1   
     9    8    9 1   
    10    8   11 1   
    11    8   16 1   
    12    9   10 2   
    13    9   19 1   
    14   11   12 1   
    15   11   17 1   
    16   11   18 1   
    17   12   13 1   
    18   12   14 1   
    19   19   20 1   
    20   19   28 1   
    21   20   21 1   
    22   20   23 1   
    23   20   29 1   
    24   21   22 2   
    25   21   41 1   
    26   23   24 1   
    27   23   30 1   
    28   23   31 1   
    29   24   25 1   
    30   24   32 1   
    31   24   33 1   
    32   25   26 1   
    33   25   34 1   
    34   25   35 1   
    35   26   27 1   
    36   26   36 1   
    37   26   37 1   
    38   27   38 1   
    39   27   39 1   
    40   27   40 1   
    41   41   42 1   
    42   41   49 1   
    43   42   43 1   
    44   42   45 1   
    45   42   50 1   
    46   43   44 2   
    47   43   53 1   
    48   45   46 1   
    49   45   51 1   
    50   45   52 1   
    51   46   47 1   
    52   46   48 1   
    53   53   54 1   
    54   53   57 1   
    55   54   55 1   
    56   54   58 1   
    57   54   59 1   
    58   55   56 2   
    59   55   60 1   
    60   60   61 1   
    61   60   68 1   
    62   61   62 1   
    63   61   64 1   
    64   61   69 1   
    65   62   63 2   
    66   62   74 1   
    67   64   65 1   
    68   64   70 1   
    69   64   71 1   
    70   65   66 1   
    71   65   67 2   
    72   66   72 1   
    73   66   73 1   
    74   74   75 1   
    75   74   78 1   
    76   75   76 1   
    77   75   79 1   
    78   75   80 1   
    79   76   77 2   
    80   76   81 1   
    81   81   82 1   
    82   81   93 1   
    83   82   83 1   
    84   82   85 1   
    85   82   94 1   
    86   83   84 2   
    87   83  102 1   
    88   85   86 1   
    89   85   95 1   
    90   85   96 1   
    91   86   87 ar  
    92   86   88 ar  
    93   87   89 ar  
    94   87   97 1   
    95   88   90 ar  
    96   88   98 1   
    97   89   91 ar  
    98   89   99 1   
    99   90   91 ar  
   100   90  100 1   
   101   91   92 1   
   102   92  101 1   
   103  102  103 1   
   104  102  110 1   
   105  103  104 1   
   106  103  106 1   
   107  103  111 1   
   108  104  105 2   
   109  104  121 1   
   110  106  107 1   
   111  106  108 1   
   112  106  112 1   
   113  107  109 1   
   114  107  113 1   
   115  107  114 1   
   116  108  115 1   
   117  108  116 1   
   118  108  117 1   
   119  109  118 1   
   120  109  119 1   
   121  109  120 1   
   122  121  122 1   
   123  121  127 1   
   124  122  123 1   
   125  122  125 1   
   126  122  128 1   
   127  123  124 2   
   128  123  132 1   
   129  125  126 1   
   130  125  129 1   
   131  125  130 1   
   132  126  131 1   
   133  132  133 1   
   134  132  137 1   
   135  133  134 1   
   136  133  136 1   
   137  133  138 1   
   138  134  135 2   
   139  134  142 1   
   140  136  139 1   
   141  136  140 1   
   142  136  141 1   
   143  142  143 1   
   144  142  147 1   
   145  143  144 1   
   146  143  146 1   
   147  143  148 1   
   148  144  145 2   
   149  144  152 1   
   150  146  149 1   
   151  146  150 1   
   152  146  151 1   
   153  152  153 1   
   154  152  161 1   
   155  153  154 1   
   156  153  156 1   
   157  153  162 1   
   158  154  155 2   
   159  154  167 1   
   160  156  157 1   
   161  156  163 1   
   162  156  164 1   
   163  157  158 1   
   164  157  165 1   
   165  157  166 1   
   166  158  159 1   
   167  158  160 1   
   168  167  168 1   
   169  167  172 1   
   170  168  169 1   
   171  168  170 1   
   172  168  171 1   
   173  174  175 1   
   174  174  176 1   
   175  177  178 1   
   176  177  179 1   
   177  180  181 1   
   178  180  182 1   
@<TRIPOS>SUBSTRUCTURE
     1 MOL         1 TEMP              0 ****  ****    0 ROOT
