@<TRIPOS>MOLECULE
MOL
  189   185     1     0     0
SMALL
resp


@<TRIPOS>ATOM
      1 C1          0.5940   -1.8130    6.6810 c3        1 MOL     -0.449646
      2 C2          0.9230   -1.8390    5.1870 c         1 MOL      0.754069
      3 O1          0.5340   -0.9350    4.4940 o         1 MOL     -0.630349
      4 H1         -0.3490   -2.3310    6.8540 hc        1 MOL      0.107355
      5 H2          1.3880   -2.3110    7.2380 hc        1 MOL      0.107355
      6 H3          0.5060   -0.7790    7.0170 hc        1 MOL      0.107355
      7 N1          1.6170   -2.8410    4.7620 n         1 MOL     -0.653742
      8 C3          2.2000   -2.9370    3.4430 c3        1 MOL      0.456467
      9 C4          1.9060   -4.2210    2.6960 c         1 MOL      0.387159
     10 O2          1.8540   -5.2890    3.3300 o         1 MOL     -0.592073
     11 C5          3.6570   -2.5990    3.6000 c3        1 MOL     -0.303088
     12 C6          4.4100   -2.4020    2.2510 c         1 MOL      0.792337
     13 O3          5.6840   -2.3530    2.2780 o         1 MOL     -0.692980
     14 O4          3.7600   -2.1770    1.1870 o         1 MOL     -0.692980
     15 H4          1.7430   -3.5510    5.4650 hn        1 MOL      0.315559
     16 H5          1.6770   -2.2230    2.7970 h1        1 MOL     -0.026709
     17 H6          4.1060   -3.4340    4.1350 hc        1 MOL      0.036816
     18 H7          3.7650   -1.6940    4.2000 hc        1 MOL      0.036816
     19 N2          1.7360   -4.0730    1.3910 n         1 MOL     -0.125543
     20 C7          1.7370   -5.2000    0.4340 c3        1 MOL     -0.016465
     21 C8          2.9930   -5.2450   -0.4930 c         1 MOL      0.543641
     22 O5          3.7190   -6.2270   -0.6140 o         1 MOL     -0.593152
     23 C9          0.4400   -5.1280   -0.4490 c3        1 MOL      0.219425
     24 C10        -0.7750   -5.5100    0.4280 c3        1 MOL     -0.013708
     25 C11         0.5920   -6.0300   -1.6880 c3        1 MOL     -0.304837
     26 C12        -2.1190   -5.4570   -0.3230 c3        1 MOL     -0.104752
     27 H8          1.8290   -3.1260    1.0260 hn        1 MOL      0.072248
     28 H9          1.6370   -6.1750    0.9200 h1        1 MOL      0.026554
     29 H10         0.2390   -4.1140   -0.8030 hc        1 MOL      0.016511
     30 H11        -0.7630   -4.8110    1.2600 hc        1 MOL     -0.016892
     31 H12        -0.7690   -6.5190    0.8400 hc        1 MOL     -0.016892
     32 H13         0.9820   -7.0090   -1.3850 hc        1 MOL      0.059516
     33 H14        -0.3700   -6.0270   -2.1910 hc        1 MOL      0.059516
     34 H15         1.3200   -5.6710   -2.4190 hc        1 MOL      0.059516
     35 H16        -2.9540   -5.3270    0.3630 hc        1 MOL      0.046558
     36 H17        -1.9960   -4.5870   -0.9740 hc        1 MOL      0.046558
     37 H18        -2.1810   -6.3510   -0.9450 hc        1 MOL      0.046558
     38 N3          3.3750   -4.1030   -1.0850 n         1 MOL     -0.151715
     39 C13         4.1610   -4.1400   -2.2770 c3        1 MOL     -0.090820
     40 C14         5.5110   -3.3340   -2.0720 c         1 MOL      0.430767
     41 O6          6.2820   -3.4120   -3.0230 o         1 MOL     -0.556462
     42 C15         3.3880   -3.3790   -3.4210 c3        1 MOL     -0.132106
     43 C16         2.8320   -2.0580   -2.9600 c         1 MOL      0.780066
     44 O7          3.3180   -1.4340   -1.9360 o         1 MOL     -0.677672
     45 O8          1.8970   -1.6730   -3.6730 o         1 MOL     -0.677672
     46 H19         2.9790   -3.2190   -0.7910 hn        1 MOL     -0.005541
     47 H20         4.4220   -5.1480   -2.5570 h1        1 MOL      0.115550
     48 H21         2.5400   -4.0370   -3.6470 hc        1 MOL      0.040864
     49 H22         4.0280   -3.2380   -4.2990 hc        1 MOL      0.040864
     50 N4          5.7720   -2.6700   -0.9000 n         1 MOL     -0.117789
     51 C17         7.0870   -2.1290   -0.5140 c3        1 MOL     -0.196276
     52 C18         7.4470   -0.7790   -1.2160 c         1 MOL      0.461961
     53 O9          8.6430   -0.5180   -1.1670 o         1 MOL     -0.581714
     54 H23         5.1430   -2.7500   -0.1170 hn        1 MOL      0.122282
     55 H24         7.8310   -2.9050   -0.6450 h1        1 MOL      0.108967
     56 H25         6.9840   -1.8590    0.5360 h1        1 MOL      0.108967
     57 N5          6.4640   -0.0310   -1.7550 n         1 MOL     -0.111812
     58 C19         6.7550    1.1730   -2.5330 c3        1 MOL     -0.040290
     59 C20         7.0590    2.3930   -1.6710 c         1 MOL      0.406306
     60 O10         7.6060    3.4020   -2.1860 o         1 MOL     -0.552945
     61 C21         5.5160    1.4330   -3.4340 c3        1 MOL     -0.202508
     62 C22         4.1920    1.6510   -2.6600 c         1 MOL      0.707150
     63 O11         4.0220    1.4890   -1.4480 o         1 MOL     -0.707071
     64 O12         3.1800    1.8790   -3.3750 o         1 MOL     -0.707071
     65 H26         5.5100   -0.3510   -1.7650 hn        1 MOL      0.074013
     66 H27         7.6070    1.0260   -3.1830 h1        1 MOL      0.096926
     67 H28         5.3900    0.5380   -4.0480 hc        1 MOL      0.076186
     68 H29         5.6470    2.2890   -4.0900 hc        1 MOL      0.076186
     69 N6          6.7350    2.4100   -0.3630 n         1 MOL     -0.232403
     70 C23         6.9100    3.4440    0.6860 c3        1 MOL     -0.233422
     71 C24         5.7230    4.2560    1.0900 c         1 MOL      0.516163
     72 O13         5.9160    5.2950    1.7100 o         1 MOL     -0.556707
     73 H30         6.2460    1.6050    0.0010 hn        1 MOL      0.281610
     74 H31         7.5490    4.1990    0.2250 h1        1 MOL      0.121690
     75 H32         7.3810    3.0260    1.5730 h1        1 MOL      0.121690
     76 N7          4.4710    3.9070    0.6070 n         1 MOL     -0.237223
     77 C25         3.2420    4.6000    0.9400 c3        1 MOL     -0.009326
     78 C26         2.0820    3.6220    1.0420 c         1 MOL      0.331925
     79 O14         2.0590    2.5450    0.4520 o         1 MOL     -0.437330
     80 C27         2.8310    5.7000   -0.0150 c3        1 MOL      0.141746
     81 C28         3.4460    5.6220   -1.4280 c3        1 MOL     -0.304839
     82 C29         3.2290    6.9450   -2.1370 c         1 MOL      0.714193
     83 N8          3.4230    6.8520   -3.4040 n         1 MOL     -0.813457
     84 O15         2.8390    7.9800   -1.6470 o         1 MOL     -0.585856
     85 H33         4.3550    3.0540    0.0960 hn        1 MOL      0.200444
     86 H34         3.3890    5.0940    1.9050 h1        1 MOL      0.025583
     87 H35         3.1940    6.6460    0.3750 hc        1 MOL      0.002536
     88 H36         1.7540    5.8170   -0.0260 hc        1 MOL      0.002536
     89 H37         2.9260    4.8510   -2.0130 hc        1 MOL      0.108309
     90 H38         4.4800    5.3160   -1.5250 hc        1 MOL      0.108309
     91 H39         3.6350    5.8980   -3.6770 hn        1 MOL      0.361316
     92 H40         2.9720    7.4680   -4.0730 hn        1 MOL      0.361316
     93 N9          1.0500    3.9920    1.9090 n         1 MOL     -0.304058
     94 C30        -0.2860    3.3040    2.0740 c3        1 MOL     -0.005463
     95 C31        -1.2890    3.6440    0.9210 c         1 MOL      0.534316
     96 O16        -1.7710    4.8060    0.8830 o         1 MOL     -0.585548
     97 C32        -0.7570    3.5930    3.5490 c3        1 MOL      0.109354
     98 C33        -2.3210    3.3530    3.7900 c3        1 MOL     -0.321130
     99 C34         0.0490    2.5690    4.4330 c3        1 MOL     -0.321130
    100 H41         1.1120    4.9310    2.2810 hn        1 MOL      0.225672
    101 H42        -0.1050    2.2470    1.8850 h1        1 MOL      0.042607
    102 H43        -0.4170    4.5890    3.8440 hc        1 MOL      0.034282
    103 H44        -2.8890    4.1070    3.2500 hc        1 MOL      0.081897
    104 H45        -2.5990    2.3090    3.7130 hc        1 MOL      0.081897
    105 H46        -2.5000    3.4360    4.8660 hc        1 MOL      0.081897
    106 H47        -0.1130    2.7930    5.4840 hc        1 MOL      0.081897
    107 H48        -0.2340    1.5290    4.2790 hc        1 MOL      0.081897
    108 H49         1.1170    2.7540    4.2830 hc        1 MOL      0.081897
    109 N10        -1.5390    2.7300   -0.0220 n         1 MOL     -0.280315
    110 C35        -2.5460    2.7180   -0.9890 c3        1 MOL      0.250963
    111 C36        -3.9560    2.3220   -0.4050 c         1 MOL      0.389598
    112 O17        -4.0980    1.8810    0.8020 o         1 MOL     -0.476527
    113 C37        -2.0560    2.1040   -2.3020 c3        1 MOL     -0.208415
    114 C38        -2.3600    0.6210   -2.3820 c         1 MOL      0.692959
    115 N11        -1.4240   -0.1900   -2.1280 n         1 MOL     -0.673693
    116 O18        -3.5070    0.2200   -2.6530 o         1 MOL     -0.666664
    117 H50        -1.0640    1.8510    0.1700 hn        1 MOL      0.128637
    118 H51        -2.5890    3.7700   -1.2580 h1        1 MOL      0.010299
    119 H52        -0.9860    2.1770   -2.4800 hc        1 MOL      0.061422
    120 H53        -2.6110    2.6290   -3.0790 hc        1 MOL      0.061422
    121 H54        -0.5360    0.0980   -1.7390 hn        1 MOL      0.375006
    122 H55        -1.5640   -1.1900   -2.2050 hn        1 MOL      0.375006
    123 N12        -5.0300    2.3730   -1.1570 n         1 MOL     -0.519560
    124 C39        -6.3560    1.9860   -0.7170 c3        1 MOL      0.274536
    125 C40        -6.5060    0.5180   -0.3640 c         1 MOL      0.654467
    126 O19        -7.3260    0.1730    0.4940 o         1 MOL     -0.546491
    127 C41        -7.2760    2.3140   -1.9050 c3        1 MOL     -0.179876
    128 C42        -8.7390    2.2030   -1.5890 ca        1 MOL      0.011044
    129 C43        -9.3240    3.1430   -0.6780 ca        1 MOL     -0.182527
    130 C44        -9.5450    1.1910   -2.1140 ca        1 MOL     -0.182527
    131 C45       -10.6380    3.0920   -0.2960 ca        1 MOL     -0.188890
    132 C46       -10.9100    1.1200   -1.7870 ca        1 MOL     -0.188890
    133 C47       -11.4480    2.1220   -0.9010 ca        1 MOL      0.263943
    134 O20       -12.7590    2.1530   -0.5670 oh        1 MOL     -0.493603
    135 H56        -4.9660    2.6080   -2.1410 hn        1 MOL      0.283523
    136 H57        -6.5840    2.5460    0.1890 h1        1 MOL      0.033444
    137 H58        -7.0360    1.6260   -2.7270 hc        1 MOL      0.066463
    138 H59        -6.9550    3.3030   -2.2450 hc        1 MOL      0.066463
    139 H60        -8.6510    3.9490   -0.4360 ha        1 MOL      0.137965
    140 H61        -9.1220    0.4640   -2.7930 ha        1 MOL      0.137965
    141 H62       -11.1160    3.8110    0.3630 ha        1 MOL      0.132330
    142 H63       -11.5210    0.3170   -2.1720 ha        1 MOL      0.132330
    143 H64       -13.2460    1.5330   -1.1050 ho        1 MOL      0.360391
    144 N13        -5.7510   -0.3520   -1.0350 n         1 MOL     -0.518617
    145 C48        -5.8410   -1.8090   -0.8290 c3        1 MOL      0.118959
    146 C49        -5.0730   -2.2580    0.4690 c         1 MOL      0.333058
    147 O21        -5.3400   -3.2600    1.1620 o         1 MOL     -0.535332
    148 C50        -5.4650   -2.5100   -2.0710 c3        1 MOL      0.017633
    149 C51        -5.8030   -3.9950   -2.1730 c3        1 MOL     -0.365913
    150 C52        -5.8580   -4.4900   -3.7090 c         1 MOL      0.727614
    151 O22        -6.9080   -4.8790   -4.2980 o         1 MOL     -0.738527
    152 O23        -4.7700   -4.4210   -4.2940 o         1 MOL     -0.738527
    153 H65        -5.3440    0.0150   -1.8900 hn        1 MOL      0.256658
    154 H66        -6.8730   -2.0140   -0.5170 h1        1 MOL      0.064103
    155 H67        -4.3860   -2.4490   -2.1840 hc        1 MOL      0.064128
    156 H68        -6.0030   -1.9850   -2.8570 hc        1 MOL      0.064128
    157 H69        -6.7170   -4.2050   -1.6270 hc        1 MOL      0.042777
    158 H70        -5.1150   -4.6450   -1.6510 hc        1 MOL      0.042777
    159 N14        -4.2850   -1.3530    1.0150 n         1 MOL     -0.065134
    160 C53        -3.6390   -1.4640    2.3000 c3        1 MOL     -0.096755
    161 C54        -4.2460   -0.5750    3.3760 c         1 MOL      0.403005
    162 O24        -3.7900   -0.5960    4.5200 o         1 MOL     -0.545162
    163 C55        -2.2140   -0.9420    2.0640 c3        1 MOL     -0.150562
    164 C56        -1.4210   -1.8070    1.0250 c3        1 MOL     -0.150143
    165 C57        -0.1120   -1.1980    0.5940 c         1 MOL      0.453746
    166 O25         0.8300   -1.8940    0.1580 o         1 MOL     -0.605438
    167 O26         0.0940    0.0410    0.8400 o         1 MOL     -0.605438
    168 H71        -4.1840   -0.4580    0.5610 hn        1 MOL      0.120501
    169 H72        -3.5330   -2.4480    2.7520 h1        1 MOL      0.109706
    170 H73        -1.7610   -1.0380    3.0580 hc        1 MOL      0.166444
    171 H74        -2.2290    0.1300    1.8940 hc        1 MOL      0.166444
    172 H75        -1.9650   -2.0560    0.1110 hc        1 MOL      0.075162
    173 H76        -1.2610   -2.7750    1.4920 hc        1 MOL      0.075162
    174 N15        -5.2290    0.2560    2.9810 n         1 MOL     -0.088177
    175 C58        -5.8090    1.3130    3.8230 c3        1 MOL     -0.146615
    176 H77        -6.5260    0.8720    4.5160 h1        1 MOL      0.067514
    177 H78        -5.0160    1.8070    4.3860 h1        1 MOL      0.067514
    178 H79        -6.3170    2.0440    3.1920 h1        1 MOL      0.067514
    179 H80        -5.5330    0.1880    2.0130 hn        1 MOL      0.060297
    180 Ca1         2.7340   -0.0580    0.0800 Ca        1 MOL      1.769389
    181 O27         2.2250    0.5250    2.5750 oh        1 MOL     -0.974387
    182 H81         2.6480    0.7620    3.4060 ho        1 MOL      0.456052
    183 H82         1.3170    0.3480    2.8200 ho        1 MOL      0.456052
    184 O28         1.3220    0.5540   -2.1980 oh        1 MOL     -0.974387
    185 H83         1.8890    1.2190   -2.5920 ho        1 MOL      0.456052
    186 H84         1.5970   -0.2620   -2.6060 ho        1 MOL      0.456052
    187 O29         4.8860    1.0380    1.6550 oh        1 MOL     -0.974387
    188 H85         4.1590    1.2650    2.2350 ho        1 MOL      0.456052
    189 H86         5.6120    0.8290    2.2470 ho        1 MOL      0.456052
@<TRIPOS>BOND
     1    1    2 1   
     2    1    4 1   
     3    1    5 1   
     4    1    6 1   
     5    2    3 2   
     6    2    7 1   
     7    7    8 1   
     8    7   15 1   
     9    8    9 1   
    10    8   11 1   
    11    8   16 1   
    12    9   10 2   
    13    9   19 1   
    14   11   12 1   
    15   11   17 1   
    16   11   18 1   
    17   12   13 1   
    18   12   14 1   
    19   19   20 1   
    20   19   27 1   
    21   20   21 1   
    22   20   23 1   
    23   20   28 1   
    24   21   22 2   
    25   21   38 1   
    26   23   24 1   
    27   23   25 1   
    28   23   29 1   
    29   24   26 1   
    30   24   30 1   
    31   24   31 1   
    32   25   32 1   
    33   25   33 1   
    34   25   34 1   
    35   26   35 1   
    36   26   36 1   
    37   26   37 1   
    38   38   39 1   
    39   38   46 1   
    40   39   40 1   
    41   39   42 1   
    42   39   47 1   
    43   40   41 2   
    44   40   50 1   
    45   42   43 1   
    46   42   48 1   
    47   42   49 1   
    48   43   44 1   
    49   43   45 1   
    50   50   51 1   
    51   50   54 1   
    52   51   52 1   
    53   51   55 1   
    54   51   56 1   
    55   52   53 2   
    56   52   57 1   
    57   57   58 1   
    58   57   65 1   
    59   58   59 1   
    60   58   61 1   
    61   58   66 1   
    62   59   60 2   
    63   59   69 1   
    64   61   62 1   
    65   61   67 1   
    66   61   68 1   
    67   62   63 1   
    68   62   64 1   
    69   69   70 1   
    70   69   73 1   
    71   70   71 1   
    72   70   74 1   
    73   70   75 1   
    74   71   72 2   
    75   71   76 1   
    76   76   77 1   
    77   76   85 1   
    78   77   78 1   
    79   77   80 1   
    80   77   86 1   
    81   78   79 2   
    82   78   93 1   
    83   80   81 1   
    84   80   87 1   
    85   80   88 1   
    86   81   82 1   
    87   81   89 1   
    88   81   90 1   
    89   82   83 1   
    90   82   84 2   
    91   83   91 1   
    92   83   92 1   
    93   93   94 1   
    94   93  100 1   
    95   94   95 1   
    96   94   97 1   
    97   94  101 1   
    98   95   96 2   
    99   95  109 1   
   100   97   98 1   
   101   97   99 1   
   102   97  102 1   
   103   98  103 1   
   104   98  104 1   
   105   98  105 1   
   106   99  106 1   
   107   99  107 1   
   108   99  108 1   
   109  109  110 1   
   110  109  117 1   
   111  110  111 1   
   112  110  113 1   
   113  110  118 1   
   114  111  112 2   
   115  111  123 1   
   116  113  114 1   
   117  113  119 1   
   118  113  120 1   
   119  114  115 1   
   120  114  116 2   
   121  115  121 1   
   122  115  122 1   
   123  123  124 1   
   124  123  135 1   
   125  124  125 1   
   126  124  127 1   
   127  124  136 1   
   128  125  126 2   
   129  125  144 1   
   130  127  128 1   
   131  127  137 1   
   132  127  138 1   
   133  128  129 ar  
   134  128  130 ar  
   135  129  131 ar  
   136  129  139 1   
   137  130  132 ar  
   138  130  140 1   
   139  131  133 ar  
   140  131  141 1   
   141  132  133 ar  
   142  132  142 1   
   143  133  134 1   
   144  134  143 1   
   145  144  145 1   
   146  144  153 1   
   147  145  146 1   
   148  145  148 1   
   149  145  154 1   
   150  146  147 2   
   151  146  159 1   
   152  148  149 1   
   153  148  155 1   
   154  148  156 1   
   155  149  150 1   
   156  149  157 1   
   157  149  158 1   
   158  150  151 1   
   159  150  152 1   
   160  159  160 1   
   161  159  168 1   
   162  160  161 1   
   163  160  163 1   
   164  160  169 1   
   165  161  162 2   
   166  161  174 1   
   167  163  164 1   
   168  163  170 1   
   169  163  171 1   
   170  164  165 1   
   171  164  172 1   
   172  164  173 1   
   173  165  166 1   
   174  165  167 1   
   175  174  175 1   
   176  174  179 1   
   177  175  176 1   
   178  175  177 1   
   179  175  178 1   
   180  181  182 1   
   181  181  183 1   
   182  184  185 1   
   183  184  186 1   
   184  187  188 1   
   185  187  189 1   
@<TRIPOS>SUBSTRUCTURE
     1 MOL         1 TEMP              0 ****  ****    0 ROOT
