@<TRIPOS>MOLECULE
MOL
  175   173     1     0     0
SMALL
resp


@<TRIPOS>ATOM
      1 C1          0.6400    3.4070    5.6440 c3        1 MOL     -0.288902
      2 C2          0.0660    3.6560    4.2770 c         1 MOL      0.741208
      3 O1          0.8570    3.6670    3.3370 o         1 MOL     -0.573272
      4 H1          0.5080    4.2960    6.2610 hc        1 MOL      0.062483
      5 H2          0.1250    2.5650    6.1070 hc        1 MOL      0.062483
      6 H3          1.7030    3.1800    5.5560 hc        1 MOL      0.062483
      7 N1         -1.2080    3.6630    4.0770 n         1 MOL     -0.660334
      8 C3         -1.8600    3.4080    2.7690 c3        1 MOL      0.176996
      9 C4         -1.9550    4.7080    1.8680 c         1 MOL      0.539406
     10 O2         -1.9320    5.8550    2.3130 o         1 MOL     -0.567481
     11 C5         -3.3100    2.9120    2.9390 c3        1 MOL     -0.233761
     12 C6         -3.9810    2.5670    1.6190 c         1 MOL      0.673326
     13 O3         -5.1370    3.0310    1.5120 o         1 MOL     -0.661956
     14 O4         -3.4370    2.0740    0.6020 o         1 MOL     -0.661956
     15 H4         -1.7590    3.5820    4.9090 hn        1 MOL      0.320448
     16 H5         -1.2550    2.6640    2.2460 h1        1 MOL      0.111677
     17 H6         -3.7980    3.6580    3.5710 hc        1 MOL      0.033877
     18 H7         -3.3290    1.9840    3.4980 hc        1 MOL      0.033877
     19 N2         -1.9080    4.4770    0.5430 n         1 MOL     -0.358398
     20 C7         -2.0160    5.5010   -0.5100 c3        1 MOL      0.165271
     21 C8         -3.0020    5.2260   -1.6350 c         1 MOL      0.418957
     22 O5         -3.3400    6.1090   -2.4670 o         1 MOL     -0.579644
     23 C9         -0.6710    5.8740   -0.9350 c3        1 MOL     -0.217335
     24 H8         -1.6940    3.5340    0.2400 hn        1 MOL      0.283171
     25 H9         -2.3910    6.4050   -0.0180 h1        1 MOL      0.049164
     26 H10        -0.5310    6.8860   -1.3250 hc        1 MOL      0.056197
     27 H11        -0.0750    5.8840   -0.0190 hc        1 MOL      0.056197
     28 H12        -0.2170    5.1910   -1.6530 hc        1 MOL      0.056197
     29 N3         -3.6810    4.0490   -1.6620 n         1 MOL     -0.203792
     30 C10        -4.5920    3.5860   -2.6810 c3        1 MOL     -0.023229
     31 C11        -5.8250    2.8150   -2.2530 c         1 MOL      0.278273
     32 O6         -6.7850    2.7410   -3.0200 o         1 MOL     -0.583867
     33 C12        -3.8360    2.6820   -3.7100 c3        1 MOL     -0.019062
     34 C13        -2.9510    1.5990   -3.0640 c         1 MOL      0.633312
     35 O7         -3.4280    0.8780   -2.2010 o         1 MOL     -0.663595
     36 O8         -1.8690    1.4300   -3.6500 o         1 MOL     -0.663595
     37 H13        -3.5000    3.4670   -0.8550 hn        1 MOL      0.110809
     38 H14        -4.8850    4.4250   -3.3160 h1        1 MOL      0.110236
     39 H15        -3.2670    3.3460   -4.3650 hc        1 MOL      0.011525
     40 H16        -4.4670    2.2600   -4.4930 hc        1 MOL      0.011525
     41 N4         -5.8870    2.2890   -1.0850 n         1 MOL      0.076279
     42 C14        -7.0670    1.6050   -0.4950 c3        1 MOL     -0.169731
     43 C15        -7.2120    0.2090   -1.1330 c         1 MOL      0.552800
     44 O9         -8.3050   -0.3350   -1.0260 o         1 MOL     -0.632913
     45 H17        -5.0760    2.3990   -0.4980 hn        1 MOL      0.077910
     46 H18        -7.9700    2.1970   -0.6120 h1        1 MOL      0.091154
     47 H19        -6.9380    1.4910    0.5800 h1        1 MOL      0.091154
     48 N5         -6.2130   -0.4550   -1.7030 n         1 MOL     -0.246106
     49 C16        -6.2440   -1.7860   -2.3220 c3        1 MOL     -0.041025
     50 C17        -6.4320   -2.9110   -1.2690 c         1 MOL      0.454644
     51 O10        -6.2880   -4.1210   -1.5630 o         1 MOL     -0.532964
     52 C18        -4.9880   -1.9380   -3.2540 c3        1 MOL     -0.171846
     53 C19        -3.7320   -2.3440   -2.5070 c         1 MOL      0.443415
     54 N6         -2.7960   -3.0640   -3.1640 n         1 MOL     -0.530386
     55 O11        -3.4580   -2.0430   -1.2760 o         1 MOL     -0.520735
     56 H20        -5.2910   -0.0350   -1.6650 hn        1 MOL      0.160689
     57 H21        -7.0860   -1.8610   -3.0050 h1        1 MOL      0.119676
     58 H22        -4.8080   -1.0360   -3.8350 hc        1 MOL      0.097591
     59 H23        -5.3000   -2.6930   -3.9700 hc        1 MOL      0.097591
     60 H24        -3.0580   -3.5790   -3.9890 hn        1 MOL      0.312056
     61 H25        -1.8240   -3.0540   -2.8820 hn        1 MOL      0.312056
     62 N7         -6.5790   -2.5450    0.0210 n         1 MOL     -0.263063
     63 C20        -6.6950   -3.4940    1.1080 c3        1 MOL     -0.234502
     64 C21        -5.3950   -4.1880    1.5180 c         1 MOL      0.463988
     65 O12        -5.5170   -5.1370    2.3300 o         1 MOL     -0.557650
     66 H26        -6.5470   -1.5680    0.2750 hn        1 MOL      0.282647
     67 H27        -7.5090   -4.2080    0.9340 h1        1 MOL      0.128323
     68 H28        -7.0390   -2.8920    1.9510 h1        1 MOL      0.128323
     69 N8         -4.2120   -3.7760    1.0190 n         1 MOL     -0.192568
     70 C22        -2.8860   -4.3820    1.2610 c3        1 MOL     -0.119178
     71 C23        -1.7290   -3.4400    1.4480 c         1 MOL      0.605151
     72 O13        -1.7860   -2.3050    0.9740 o         1 MOL     -0.590098
     73 C24        -2.6060   -5.5350    0.2190 c3        1 MOL      0.536760
     74 C25        -3.6600   -6.6210    0.2510 c3        1 MOL     -0.502963
     75 O14        -2.4300   -5.1600   -1.0990 oh        1 MOL     -0.612516
     76 H29        -4.1770   -2.8940    0.5190 hn        1 MOL      0.174143
     77 H30        -2.9600   -4.8830    2.2160 h1        1 MOL      0.044495
     78 H31        -1.6750   -5.9860    0.5530 h1        1 MOL     -0.023736
     79 H32        -3.1230   -4.5410   -1.3320 ho        1 MOL      0.347451
     80 H33        -3.3960   -7.4830   -0.3550 hc        1 MOL      0.119703
     81 H34        -3.7330   -6.9260    1.3000 hc        1 MOL      0.119703
     82 H35        -4.6080   -6.2110   -0.1120 hc        1 MOL      0.119703
     83 N9         -0.6270   -3.8280    2.0670 n         1 MOL     -0.529640
     84 C26         0.5330   -2.8970    2.0940 c3        1 MOL      0.063539
     85 C27         1.3090   -3.1710    0.8300 c         1 MOL      0.589945
     86 O15         1.5420   -4.2960    0.4530 o         1 MOL     -0.590840
     87 C28         1.3420   -3.1780    3.3820 c3        1 MOL      0.153093
     88 C29         0.4580   -2.9510    4.6370 c3        1 MOL      0.295481
     89 C30         2.6350   -2.2780    3.4030 c3        1 MOL     -0.426772
     90 C31         1.1640   -3.1420    6.0700 c3        1 MOL     -0.267713
     91 H36        -0.4710   -4.8060    2.2820 hn        1 MOL      0.278800
     92 H37         0.1410   -1.8810    2.0680 h1        1 MOL      0.021293
     93 H38         1.5790   -4.2390    3.3310 hc        1 MOL     -0.033586
     94 H39        -0.4290   -3.5890    4.6410 hc        1 MOL     -0.081551
     95 H40         0.0170   -1.9630    4.5500 hc        1 MOL     -0.081551
     96 H41         3.1360   -2.4250    4.3600 hc        1 MOL      0.092212
     97 H42         3.2380   -2.7280    2.6100 hc        1 MOL      0.092212
     98 H43         2.3330   -1.2330    3.3160 hc        1 MOL      0.092212
     99 H44         0.3870   -2.8730    6.7920 hc        1 MOL      0.051147
    100 H45         1.4530   -4.1780    6.2330 hc        1 MOL      0.051147
    101 H46         2.0140   -2.4740    6.1020 hc        1 MOL      0.051147
    102 N10         1.8120   -2.1260    0.1590 n         1 MOL     -0.355422
    103 C32         2.6710   -2.1060   -1.0090 c3        1 MOL      0.187653
    104 C33         4.1360   -1.6900   -0.7050 c         1 MOL      0.339587
    105 O16         4.3460   -1.2460    0.4420 o         1 MOL     -0.377728
    106 C34         2.0420   -1.1780   -2.0850 c3        1 MOL     -0.097902
    107 C35         0.5790   -1.4140   -2.4000 c         1 MOL      0.625598
    108 O17        -0.3370   -1.1440   -1.5620 o         1 MOL     -0.654592
    109 O18         0.2920   -1.9200   -3.5230 o         1 MOL     -0.654592
    110 H47         1.6870   -1.2250    0.5990 hn        1 MOL      0.322716
    111 H48         2.6790   -3.1240   -1.3960 h1        1 MOL      0.036730
    112 H49         2.6980   -1.4620   -2.9180 hc        1 MOL     -0.000022
    113 H50         2.1420   -0.1430   -1.7600 hc        1 MOL     -0.000022
    114 N11         5.0700   -1.9110   -1.6580 n         1 MOL     -0.579504
    115 C36         6.4850   -1.5940   -1.3590 c3        1 MOL      0.362494
    116 C37         6.7940   -0.0820   -1.1360 c         1 MOL      0.204957
    117 O19         7.6330    0.2400   -0.2490 o         1 MOL     -0.472452
    118 C38         7.4510   -2.2020   -2.4420 c3        1 MOL     -0.327813
    119 C39         8.9160   -1.8080   -2.2140 ca        1 MOL      0.143919
    120 C40         9.6630   -2.4010   -1.1340 ca        1 MOL     -0.148516
    121 C41         9.6140   -1.0180   -3.1230 ca        1 MOL     -0.148516
    122 C42        11.0560   -2.1600   -0.9800 ca        1 MOL     -0.164057
    123 C43        10.9760   -0.7100   -2.9320 ca        1 MOL     -0.164057
    124 C44        11.6960   -1.3350   -1.8840 ca        1 MOL     -0.034606
    125 H51         4.7940   -2.2250   -2.5760 hn        1 MOL      0.347822
    126 H52         6.6280   -2.1010   -0.4010 h1        1 MOL      0.063176
    127 H53         7.0670   -1.7230   -3.3430 hc        1 MOL      0.101000
    128 H54         7.3420   -3.2750   -2.5740 hc        1 MOL      0.101000
    129 H55         9.1110   -3.0830   -0.5130 ha        1 MOL      0.109797
    130 H56         9.1490   -0.6390   -4.0260 ha        1 MOL      0.109797
    131 H57        11.5740   -2.5970   -0.1430 ha        1 MOL      0.127372
    132 H58        11.5010    0.0540   -3.4900 ha        1 MOL      0.127372
    133 H59        12.7800   -1.2410   -1.8850 ha        1 MOL      0.072108
    134 N12         6.1880    0.8760   -1.8490 n         1 MOL      0.025692
    135 C45         6.1750    2.3470   -1.4610 c3        1 MOL     -0.128305
    136 C46         5.5470    2.6230   -0.0910 c         1 MOL      0.304049
    137 O20         5.6800    3.7830    0.3830 o         1 MOL     -0.511164
    138 C47         5.3390    2.9320   -2.5440 c3        1 MOL      0.031955
    139 C48         5.5310    2.0630   -3.7070 c3        1 MOL      0.110405
    140 C49         5.5750    0.7230   -3.1250 c3        1 MOL     -0.089916
    141 H60         7.1840    2.7550   -1.5330 h1        1 MOL      0.106623
    142 H61         4.2980    2.9040   -2.1980 hc        1 MOL      0.019000
    143 H62         5.5730    3.9740   -2.7550 hc        1 MOL      0.019000
    144 H63         4.8240    2.2410   -4.5100 hc        1 MOL     -0.004164
    145 H64         6.4900    2.3450   -4.1460 hc        1 MOL     -0.004164
    146 H65         4.6050    0.2810   -2.9370 h1        1 MOL      0.022528
    147 H66         6.1270    0.0890   -3.8310 h1        1 MOL      0.022528
    148 N13         4.8340    1.6840    0.5250 n         1 MOL      0.106066
    149 C50         4.1640    1.9440    1.7340 c3        1 MOL     -0.190446
    150 C51         4.9050    1.4140    2.9420 c         1 MOL      0.570042
    151 O21         5.0400    2.1330    3.8910 o         1 MOL     -0.555181
    152 C52         2.7040    1.4790    1.6620 c3        1 MOL      0.042865
    153 C53         1.8790    2.1650    0.5110 c3        1 MOL     -0.062256
    154 C54         0.4240    1.6700    0.4670 c         1 MOL      0.379993
    155 O22         0.0320    0.7910    1.2490 o         1 MOL     -0.650721
    156 O23        -0.4670    2.1660   -0.2680 o         1 MOL     -0.650721
    157 H67         4.7720    0.7620    0.1110 hn        1 MOL      0.050450
    158 H68         4.1230    3.0240    1.8950 h1        1 MOL      0.109581
    159 H69         2.2650    1.7280    2.6290 hc        1 MOL      0.019079
    160 H70         2.6910    0.3860    1.6230 hc        1 MOL      0.019079
    161 H71         2.3610    1.9310   -0.4340 hc        1 MOL      0.072718
    162 H72         1.9720    3.2440    0.5970 hc        1 MOL      0.072718
    163 N14         5.5480    0.2780    2.7960 n         1 MOL     -0.277877
    164 C55         6.7080   -0.1060    3.6520 c3        1 MOL     -0.158285
    165 H73         6.5920    0.3380    4.6400 h1        1 MOL      0.078700
    166 H74         6.7480   -1.1910    3.7450 h1        1 MOL      0.078700
    167 H75         7.6300    0.2550    3.1970 h1        1 MOL      0.078700
    168 H76         5.3800   -0.2830    1.9810 hn        1 MOL      0.173693
    169 Ca1        -2.1290    0.0600   -0.2820 Ca        1 MOL      1.648878
    170 O24        -4.3930   -0.7880    1.1400 oh        1 MOL     -0.763520
    171 H77        -3.8170   -1.0170    1.8710 ho        1 MOL      0.377246
    172 H78        -5.2080   -0.4970    1.5490 ho        1 MOL      0.377246
    173 O25        -1.8110    0.1530    2.7830 oh        1 MOL     -0.763520
    174 H79        -1.0550    0.5350    2.3390 ho        1 MOL      0.377246
    175 H80        -1.7760    0.5240    3.6650 ho        1 MOL      0.377246
@<TRIPOS>BOND
     1    1    2 1   
     2    1    4 1   
     3    1    5 1   
     4    1    6 1   
     5    2    3 2   
     6    2    7 1   
     7    7    8 1   
     8    7   15 1   
     9    8    9 1   
    10    8   11 1   
    11    8   16 1   
    12    9   10 2   
    13    9   19 1   
    14   11   12 1   
    15   11   17 1   
    16   11   18 1   
    17   12   13 1   
    18   12   14 1   
    19   19   20 1   
    20   19   24 1   
    21   20   21 1   
    22   20   23 1   
    23   20   25 1   
    24   21   22 2   
    25   21   29 1   
    26   23   26 1   
    27   23   27 1   
    28   23   28 1   
    29   29   30 1   
    30   29   37 1   
    31   30   31 1   
    32   30   33 1   
    33   30   38 1   
    34   31   32 2   
    35   31   41 1   
    36   33   34 1   
    37   33   39 1   
    38   33   40 1   
    39   34   35 1   
    40   34   36 1   
    41   41   42 1   
    42   41   45 1   
    43   42   43 1   
    44   42   46 1   
    45   42   47 1   
    46   43   44 2   
    47   43   48 1   
    48   48   49 1   
    49   48   56 1   
    50   49   50 1   
    51   49   52 1   
    52   49   57 1   
    53   50   51 2   
    54   50   62 1   
    55   52   53 1   
    56   52   58 1   
    57   52   59 1   
    58   53   54 1   
    59   53   55 2   
    60   54   60 1   
    61   54   61 1   
    62   62   63 1   
    63   62   66 1   
    64   63   64 1   
    65   63   67 1   
    66   63   68 1   
    67   64   65 2   
    68   64   69 1   
    69   69   70 1   
    70   69   76 1   
    71   70   71 1   
    72   70   73 1   
    73   70   77 1   
    74   71   72 2   
    75   71   83 1   
    76   73   74 1   
    77   73   75 1   
    78   73   78 1   
    79   74   80 1   
    80   74   81 1   
    81   74   82 1   
    82   75   79 1   
    83   83   84 1   
    84   83   91 1   
    85   84   85 1   
    86   84   87 1   
    87   84   92 1   
    88   85   86 2   
    89   85  102 1   
    90   87   88 1   
    91   87   89 1   
    92   87   93 1   
    93   88   90 1   
    94   88   94 1   
    95   88   95 1   
    96   89   96 1   
    97   89   97 1   
    98   89   98 1   
    99   90   99 1   
   100   90  100 1   
   101   90  101 1   
   102  102  103 1   
   103  102  110 1   
   104  103  104 1   
   105  103  106 1   
   106  103  111 1   
   107  104  105 2   
   108  104  114 1   
   109  106  107 1   
   110  106  112 1   
   111  106  113 1   
   112  107  108 1   
   113  107  109 1   
   114  114  115 1   
   115  114  125 1   
   116  115  116 1   
   117  115  118 1   
   118  115  126 1   
   119  116  117 2   
   120  116  134 1   
   121  118  119 1   
   122  118  127 1   
   123  118  128 1   
   124  119  120 ar  
   125  119  121 ar  
   126  120  122 ar  
   127  120  129 1   
   128  121  123 ar  
   129  121  130 1   
   130  122  124 ar  
   131  122  131 1   
   132  123  124 ar  
   133  123  132 1   
   134  124  133 1   
   135  134  135 1   
   136  134  140 1   
   137  135  136 1   
   138  135  138 1   
   139  135  141 1   
   140  136  137 2   
   141  136  148 1   
   142  138  139 1   
   143  138  142 1   
   144  138  143 1   
   145  139  140 1   
   146  139  144 1   
   147  139  145 1   
   148  140  146 1   
   149  140  147 1   
   150  148  149 1   
   151  148  157 1   
   152  149  150 1   
   153  149  152 1   
   154  149  158 1   
   155  150  151 2   
   156  150  163 1   
   157  152  153 1   
   158  152  159 1   
   159  152  160 1   
   160  153  154 1   
   161  153  161 1   
   162  153  162 1   
   163  154  155 1   
   164  154  156 1   
   165  163  164 1   
   166  163  168 1   
   167  164  165 1   
   168  164  166 1   
   169  164  167 1   
   170  170  171 1   
   171  170  172 1   
   172  173  174 1   
   173  173  175 1   
@<TRIPOS>SUBSTRUCTURE
     1 MOL         1 TEMP              0 ****  ****    0 ROOT
