@<TRIPOS>MOLECULE
MOL
  189   185     1     0     0
SMALL
resp


@<TRIPOS>ATOM
      1 C1         -0.1490    2.6400   -5.1360 c3        1 MOL     -0.441049
      2 C2          0.5300    2.4100   -3.7740 c         1 MOL      0.650162
      3 O1         -0.0880    2.6920   -2.7640 o         1 MOL     -0.575095
      4 H1         -1.2280    2.7090   -4.9970 hc        1 MOL      0.111932
      5 H2          0.2200    3.5670   -5.5760 hc        1 MOL      0.111932
      6 H3          0.0770    1.8070   -5.8010 hc        1 MOL      0.111932
      7 N1          1.7790    1.8510   -3.7090 n         1 MOL     -0.545295
      8 C3          2.4210    1.5020   -2.4810 c3        1 MOL      0.393610
      9 C4          3.1050    2.7460   -1.8920 c         1 MOL      0.147103
     10 O2          4.2770    2.9930   -2.2210 o         1 MOL     -0.456989
     11 C5          3.3580    0.2410   -2.7190 c3        1 MOL     -0.219977
     12 C6          4.0420   -0.1630   -1.3830 c         1 MOL      0.712436
     13 O3          3.6080    0.1840   -0.2640 o         1 MOL     -0.682673
     14 O4          5.1200   -0.7030   -1.3680 o         1 MOL     -0.682673
     15 H4          2.1220    1.5550   -4.6100 hn        1 MOL      0.291229
     16 H5          1.7080    1.2380   -1.6990 h1        1 MOL     -0.058106
     17 H6          4.1070    0.4670   -3.4720 hc        1 MOL      0.058080
     18 H7          2.6890   -0.5690   -3.0160 hc        1 MOL      0.058080
     19 N2          2.4130    3.5570   -1.1250 n         1 MOL     -0.189291
     20 C7          2.9320    4.8630   -0.7030 c3        1 MOL      0.142229
     21 C8          3.9590    4.8740    0.3980 c         1 MOL      0.374990
     22 O5          4.8960    5.7070    0.3130 o         1 MOL     -0.543067
     23 C9          1.7990    5.8720   -0.3620 c3        1 MOL     -0.311202
     24 C10         0.8170    6.1360   -1.4460 c3        1 MOL      0.247569
     25 C11         1.3920    6.7550   -2.6540 c3        1 MOL      0.030591
     26 C12         0.7310    7.8240   -3.4070 c3        1 MOL     -0.081563
     27 N3         -0.4800    7.2470   -3.9270 n4        1 MOL     -0.193962
     28 H8          1.4900    3.2380   -0.8830 hn        1 MOL      0.319031
     29 H9          3.5080    5.2060   -1.5610 h1        1 MOL      0.034478
     30 H10         2.1920    6.8570   -0.1220 hc        1 MOL      0.088945
     31 H11         1.2660    5.4610    0.4920 hc        1 MOL      0.088945
     32 H12         0.0530    6.7940   -1.0220 hc        1 MOL     -0.060862
     33 H13         0.3130    5.2090   -1.7070 hc        1 MOL     -0.060862
     34 H14         1.6410    6.0000   -3.3960 hc        1 MOL      0.022385
     35 H15         2.3270    7.2190   -2.3270 hc        1 MOL      0.022385
     36 H16         1.3680    8.0430   -4.2610 hx        1 MOL      0.102908
     37 H17         0.4480    8.7160   -2.8550 hx        1 MOL      0.102908
     38 H18        -0.3380    6.3110   -4.2880 hn        1 MOL      0.281645
     39 H19        -1.2640    7.2160   -3.2970 hn        1 MOL      0.281645
     40 H20        -0.7580    7.8130   -4.7070 hn        1 MOL      0.281645
     41 N4          3.7790    4.0650    1.4160 n         1 MOL     -0.243741
     42 C13         4.6740    3.7390    2.4780 c3        1 MOL      0.211592
     43 C14         5.7820    2.8570    2.0860 c         1 MOL      0.296991
     44 O6          6.9240    2.9360    2.6780 o         1 MOL     -0.557924
     45 C15         3.9420    3.1970    3.6860 c3        1 MOL     -0.527425
     46 C16         2.8330    2.2150    3.4390 c         1 MOL      0.877942
     47 O7          2.6710    1.6500    2.3330 o         1 MOL     -0.728295
     48 O8          2.0130    1.9440    4.3430 o         1 MOL     -0.728295
     49 H21         2.9800    3.4570    1.3470 hn        1 MOL      0.162549
     50 H22         5.1270    4.6910    2.7660 h1        1 MOL      0.063315
     51 H23         3.5110    4.0820    4.1670 hc        1 MOL      0.136624
     52 H24         4.6870    2.7330    4.3360 hc        1 MOL      0.136624
     53 N5          5.6650    2.0620    1.0170 n         1 MOL      0.093407
     54 C17         6.8360    1.3760    0.3450 c3        1 MOL     -0.216064
     55 C18         7.2230    0.0030    0.9350 c         1 MOL      0.548787
     56 O9          8.3990   -0.3410    0.8570 o         1 MOL     -0.596192
     57 H25         4.8250    2.2660    0.4910 hn        1 MOL      0.041967
     58 H26         7.6950    2.0370    0.3390 h1        1 MOL      0.117804
     59 H27         6.5340    1.2300   -0.6930 h1        1 MOL      0.117804
     60 N6          6.2860   -0.7550    1.4280 n         1 MOL     -0.169214
     61 C19         6.4600   -2.0210    2.0980 c3        1 MOL      0.006276
     62 C20         6.4160   -3.2660    1.1370 c         1 MOL      0.380825
     63 O10         6.4950   -4.4360    1.5590 o         1 MOL     -0.515104
     64 C21         5.4110   -2.2090    3.2070 c3        1 MOL     -0.216731
     65 C22         4.0180   -1.9460    2.6480 c         1 MOL      0.731315
     66 O11         3.5290   -2.5630    1.6450 o         1 MOL     -0.694408
     67 O12         3.3700   -1.0470    3.2710 o         1 MOL     -0.694408
     68 H28         5.3400   -0.4240    1.2830 hn        1 MOL      0.037460
     69 H29         7.4600   -2.0090    2.5280 h1        1 MOL      0.105367
     70 H30         5.6370   -1.4320    3.9300 hc        1 MOL      0.071743
     71 H31         5.4760   -3.2120    3.6360 hc        1 MOL      0.071743
     72 N7          6.2850   -2.9840   -0.1990 n         1 MOL     -0.265668
     73 C23         6.3070   -3.9770   -1.2450 c3        1 MOL     -0.279162
     74 C24         4.9340   -4.5570   -1.5910 c         1 MOL      0.540541
     75 O13         4.8910   -5.5710   -2.2370 o         1 MOL     -0.563602
     76 H32         6.0010   -2.0460   -0.4630 hn        1 MOL      0.318989
     77 H33         6.8580   -4.8330   -0.8520 h1        1 MOL      0.144228
     78 H34         6.8490   -3.4960   -2.0480 h1        1 MOL      0.144228
     79 N8          3.8440   -4.0190   -1.0160 n         1 MOL     -0.170378
     80 C25         2.5280   -4.5720   -1.1130 c3        1 MOL     -0.225705
     81 C26         1.3900   -3.5650   -1.1750 c         1 MOL      0.572320
     82 O14         1.4740   -2.4410   -0.6760 o         1 MOL     -0.596437
     83 C27         2.2330   -5.5630    0.0180 c3        1 MOL      0.630080
     84 C28         2.9620   -6.9100    0.0180 c3        1 MOL     -0.417030
     85 O15         2.5350   -5.0000    1.2400 oh        1 MOL     -0.692199
     86 H35         3.9850   -3.2130   -0.4240 hn        1 MOL      0.114588
     87 H36         2.6040   -5.1630   -2.0230 h1        1 MOL      0.082286
     88 H37         1.1570   -5.7340   -0.1090 h1        1 MOL     -0.119498
     89 H38         2.9070   -4.1260    1.0610 ho        1 MOL      0.466476
     90 H39         4.0100   -6.6650    0.1430 hc        1 MOL      0.104035
     91 H40         2.6330   -7.5770    0.8110 hc        1 MOL      0.104035
     92 H41         2.7290   -7.3530   -0.9480 hc        1 MOL      0.104035
     93 N9          0.2690   -3.9890   -1.7190 n         1 MOL     -0.492302
     94 C29        -0.9370   -3.2060   -1.9320 c3        1 MOL      0.017471
     95 C30        -2.1620   -3.6980   -1.1260 c         1 MOL      0.547409
     96 O16        -2.7910   -4.6860   -1.5070 o         1 MOL     -0.553855
     97 C31        -1.2390   -2.8570   -3.4270 c3        1 MOL      0.455312
     98 C32         0.0050   -2.5400   -4.2770 c3        1 MOL      0.231037
     99 C33        -2.3560   -1.7730   -3.5540 c3        1 MOL     -0.582561
    100 C34        -0.2860   -2.3700   -5.7580 c3        1 MOL     -0.257371
    101 H42         0.2720   -4.8340   -2.2880 hn        1 MOL      0.276525
    102 H43        -0.7650   -2.1940   -1.5480 h1        1 MOL      0.021097
    103 H44        -1.6150   -3.8070   -3.8140 hc        1 MOL     -0.117625
    104 H45         0.7180   -3.3620   -4.2630 hc        1 MOL     -0.066411
    105 H46         0.4180   -1.6220   -3.8480 hc        1 MOL     -0.066411
    106 H47        -2.8160   -1.9270   -4.5350 hc        1 MOL      0.114745
    107 H48        -3.0830   -1.7680   -2.7440 hc        1 MOL      0.114745
    108 H49        -1.8840   -0.7920   -3.5770 hc        1 MOL      0.114745
    109 H50        -0.7960   -3.1860   -6.2710 hc        1 MOL      0.051661
    110 H51        -0.9930   -1.5420   -5.8460 hc        1 MOL      0.051661
    111 H52         0.6740   -2.0580   -6.1770 hc        1 MOL      0.051661
    112 N10        -2.4850   -2.9610   -0.0710 n         1 MOL     -0.222363
    113 C35        -3.6830   -3.0640    0.7460 c3        1 MOL     -0.380826
    114 C36        -4.9050   -2.6440   -0.0400 c         1 MOL      0.491977
    115 O17        -4.8340   -1.7550   -0.9240 o         1 MOL     -0.375576
    116 C37        -3.5750   -2.1970    1.9720 c3        1 MOL      0.232925
    117 C38        -2.6340   -2.8270    2.9080 c3        1 MOL     -0.093610
    118 O18        -3.1970   -0.8780    1.7480 oh        1 MOL     -0.529802
    119 H53        -1.7250   -2.4090    0.2920 hn        1 MOL      0.282854
    120 H54        -3.7400   -4.1270    0.9670 h1        1 MOL      0.152768
    121 H55        -4.6130   -2.1940    2.3270 h1        1 MOL      0.033438
    122 H56        -2.4270   -0.8520    1.1700 ho        1 MOL      0.333643
    123 H57        -1.6520   -2.8390    2.4470 hc        1 MOL      0.037220
    124 H58        -2.6790   -2.3330    3.8860 hc        1 MOL      0.037220
    125 H59        -2.8640   -3.8430    3.2410 hc        1 MOL      0.037220
    126 N11        -6.1180   -3.1790    0.2690 n         1 MOL     -0.303486
    127 C39        -7.3720   -2.6400   -0.2780 c3        1 MOL     -0.170540
    128 C40        -7.4560   -1.1030   -0.1490 c         1 MOL      0.270924
    129 O19        -7.8130   -0.4080   -1.1090 o         1 MOL     -0.424992
    130 C41        -8.6240   -3.2390    0.3780 c3        1 MOL      0.333682
    131 C42        -8.9440   -4.7390    0.0320 c3        1 MOL     -0.418977
    132 O20        -8.3870   -3.1750    1.7830 oh        1 MOL     -0.631811
    133 H60        -6.1880   -3.9880    0.8670 hn        1 MOL      0.279842
    134 H61        -7.4640   -2.9210   -1.3180 h1        1 MOL      0.153393
    135 H62        -9.5110   -2.6290    0.1990 h1        1 MOL      0.038942
    136 H63        -9.2320   -3.2300    2.2350 ho        1 MOL      0.403058
    137 H64        -8.0590   -5.3750    0.0740 hc        1 MOL      0.122696
    138 H65        -9.6620   -5.0550    0.8010 hc        1 MOL      0.122696
    139 H66        -9.3080   -4.7730   -0.9890 hc        1 MOL      0.122696
    140 N12        -7.0660   -0.5670    1.0350 n         1 MOL     -0.049063
    141 C43        -7.1190    0.8500    1.3850 c3        1 MOL     -0.127778
    142 C44        -6.3080    1.7310    0.3970 c         1 MOL      0.258643
    143 O21        -6.8090    2.6750   -0.1820 o         1 MOL     -0.501320
    144 C45        -6.6190    0.9850    2.8300 c3        1 MOL     -0.269187
    145 C46        -6.6820    2.4900    3.1710 c3        1 MOL      0.066864
    146 C47        -6.4180    2.7650    4.6830 c3        1 MOL     -0.136052
    147 C48        -6.6690    4.2590    4.8870 c3        1 MOL      0.082957
    148 N13        -6.4130    4.5450    6.3070 n4        1 MOL     -0.393291
    149 H67        -6.9940   -1.2120    1.8030 hn        1 MOL      0.168491
    150 H68        -8.1590    1.1700    1.3140 h1        1 MOL      0.128385
    151 H69        -5.5760    0.7060    2.9370 hc        1 MOL      0.112982
    152 H70        -7.2430    0.4730    3.5640 hc        1 MOL      0.112982
    153 H71        -7.6680    2.9120    2.9860 hc        1 MOL      0.038537
    154 H72        -6.0210    3.1230    2.5710 hc        1 MOL      0.038537
    155 H73        -5.3690    2.5960    4.9160 hc        1 MOL      0.065993
    156 H74        -7.0820    2.1520    5.2970 hc        1 MOL      0.065993
    157 H75        -7.6020    4.5940    4.4440 hx        1 MOL      0.089420
    158 H76        -5.9050    4.7650    4.3040 hx        1 MOL      0.089420
    159 H77        -5.5050    4.2750    6.6660 hn        1 MOL      0.333121
    160 H78        -6.4760    5.5280    6.5230 hn        1 MOL      0.333121
    161 H79        -7.0470    4.0330    6.9070 hn        1 MOL      0.333121
    162 N14        -5.0780    1.3420    0.0320 n         1 MOL      0.057439
    163 C49        -4.2150    1.8700   -1.0440 c3        1 MOL     -0.127371
    164 C50        -4.7990    1.9810   -2.4640 c         1 MOL      0.442904
    165 O22        -4.4130    2.8950   -3.1800 o         1 MOL     -0.563040
    166 C51        -2.8870    1.1500   -1.0370 c3        1 MOL     -0.195525
    167 C52        -2.0490    1.6140    0.1360 c3        1 MOL     -0.120988
    168 C53        -0.7190    0.8900    0.2240 c         1 MOL      0.844775
    169 O23         0.3080    1.5510    0.2830 o         1 MOL     -0.773514
    170 O24        -0.6610   -0.3440    0.4260 o         1 MOL     -0.773514
    171 H80        -4.7820    0.5260    0.5590 hn        1 MOL      0.094227
    172 H81        -4.0610    2.8640   -0.6330 h1        1 MOL      0.096978
    173 H82        -2.3450    1.3410   -1.9590 hc        1 MOL      0.117560
    174 H83        -2.9080    0.0620   -0.9360 hc        1 MOL      0.117560
    175 H84        -2.6360    1.5520    1.0480 hc        1 MOL      0.023269
    176 H85        -1.7840    2.6740    0.1420 hc        1 MOL      0.023269
    177 N15        -5.7920    1.1500   -2.8170 n         1 MOL     -0.044374
    178 C54        -6.6360    1.1930   -3.9850 c3        1 MOL     -0.218518
    179 H86        -7.6790    1.2530   -3.6770 h1        1 MOL      0.088935
    180 H87        -6.3830    2.0680   -4.5850 h1        1 MOL      0.088935
    181 H88        -6.4830    0.2910   -4.5770 h1        1 MOL      0.088935
    182 H89        -6.0110    0.4120   -2.1620 hn        1 MOL      0.134135
    183 Ca1         1.7350   -0.4640    1.2940 Ca        1 MOL      1.764328
    184 O25         0.4240   -0.1610    3.8870 oh        1 MOL     -0.853370
    185 H90         0.3430   -0.7140    4.6630 ho        1 MOL      0.391773
    186 H91         1.0170    0.5410    4.1440 ho        1 MOL      0.391773
    187 O26         0.8150   -2.7700    2.1400 oh        1 MOL     -0.853370
    188 H92         0.6520   -2.9810    3.0600 ho        1 MOL      0.391773
    189 H93         1.2270   -3.5610    1.7900 ho        1 MOL      0.391773
@<TRIPOS>BOND
     1    1    2 1   
     2    1    4 1   
     3    1    5 1   
     4    1    6 1   
     5    2    3 2   
     6    2    7 1   
     7    7    8 1   
     8    7   15 1   
     9    8    9 1   
    10    8   11 1   
    11    8   16 1   
    12    9   10 2   
    13    9   19 1   
    14   11   12 1   
    15   11   17 1   
    16   11   18 1   
    17   12   13 1   
    18   12   14 1   
    19   19   20 1   
    20   19   28 1   
    21   20   21 1   
    22   20   23 1   
    23   20   29 1   
    24   21   22 2   
    25   21   41 1   
    26   23   24 1   
    27   23   30 1   
    28   23   31 1   
    29   24   25 1   
    30   24   32 1   
    31   24   33 1   
    32   25   26 1   
    33   25   34 1   
    34   25   35 1   
    35   26   27 1   
    36   26   36 1   
    37   26   37 1   
    38   27   38 1   
    39   27   39 1   
    40   27   40 1   
    41   41   42 1   
    42   41   49 1   
    43   42   43 1   
    44   42   45 1   
    45   42   50 1   
    46   43   44 2   
    47   43   53 1   
    48   45   46 1   
    49   45   51 1   
    50   45   52 1   
    51   46   47 1   
    52   46   48 1   
    53   53   54 1   
    54   53   57 1   
    55   54   55 1   
    56   54   58 1   
    57   54   59 1   
    58   55   56 2   
    59   55   60 1   
    60   60   61 1   
    61   60   68 1   
    62   61   62 1   
    63   61   64 1   
    64   61   69 1   
    65   62   63 2   
    66   62   72 1   
    67   64   65 1   
    68   64   70 1   
    69   64   71 1   
    70   65   66 1   
    71   65   67 1   
    72   72   73 1   
    73   72   76 1   
    74   73   74 1   
    75   73   77 1   
    76   73   78 1   
    77   74   75 2   
    78   74   79 1   
    79   79   80 1   
    80   79   86 1   
    81   80   81 1   
    82   80   83 1   
    83   80   87 1   
    84   81   82 2   
    85   81   93 1   
    86   83   84 1   
    87   83   85 1   
    88   83   88 1   
    89   84   90 1   
    90   84   91 1   
    91   84   92 1   
    92   85   89 1   
    93   93   94 1   
    94   93  101 1   
    95   94   95 1   
    96   94   97 1   
    97   94  102 1   
    98   95   96 2   
    99   95  112 1   
   100   97   98 1   
   101   97   99 1   
   102   97  103 1   
   103   98  100 1   
   104   98  104 1   
   105   98  105 1   
   106   99  106 1   
   107   99  107 1   
   108   99  108 1   
   109  100  109 1   
   110  100  110 1   
   111  100  111 1   
   112  112  113 1   
   113  112  119 1   
   114  113  114 1   
   115  113  116 1   
   116  113  120 1   
   117  114  115 2   
   118  114  126 1   
   119  116  117 1   
   120  116  118 1   
   121  116  121 1   
   122  117  123 1   
   123  117  124 1   
   124  117  125 1   
   125  118  122 1   
   126  126  127 1   
   127  126  133 1   
   128  127  128 1   
   129  127  130 1   
   130  127  134 1   
   131  128  129 2   
   132  128  140 1   
   133  130  131 1   
   134  130  132 1   
   135  130  135 1   
   136  131  137 1   
   137  131  138 1   
   138  131  139 1   
   139  132  136 1   
   140  140  141 1   
   141  140  149 1   
   142  141  142 1   
   143  141  144 1   
   144  141  150 1   
   145  142  143 2   
   146  142  162 1   
   147  144  145 1   
   148  144  151 1   
   149  144  152 1   
   150  145  146 1   
   151  145  153 1   
   152  145  154 1   
   153  146  147 1   
   154  146  155 1   
   155  146  156 1   
   156  147  148 1   
   157  147  157 1   
   158  147  158 1   
   159  148  159 1   
   160  148  160 1   
   161  148  161 1   
   162  162  163 1   
   163  162  171 1   
   164  163  164 1   
   165  163  166 1   
   166  163  172 1   
   167  164  165 2   
   168  164  177 1   
   169  166  167 1   
   170  166  173 1   
   171  166  174 1   
   172  167  168 1   
   173  167  175 1   
   174  167  176 1   
   175  168  169 1   
   176  168  170 1   
   177  177  178 1   
   178  177  182 1   
   179  178  179 1   
   180  178  180 1   
   181  178  181 1   
   182  184  185 1   
   183  184  186 1   
   184  187  188 1   
   185  187  189 1   
@<TRIPOS>SUBSTRUCTURE
     1 MOL         1 TEMP              0 ****  ****    0 ROOT
