@<TRIPOS>MOLECULE
MOL
  189   185     1     0     0
SMALL
resp


@<TRIPOS>ATOM
      1 C1         -1.0710    5.1810    5.6410 c3        1 MOL     -0.403102
      2 C2         -1.0060    4.3800    4.3470 c         1 MOL      0.801267
      3 O1         -0.8380    3.1890    4.3940 o         1 MOL     -0.613562
      4 H1         -0.7440    4.5550    6.4710 hc        1 MOL      0.096629
      5 H2         -0.4200    6.0520    5.5630 hc        1 MOL      0.096629
      6 H3         -2.0970    5.5080    5.8140 hc        1 MOL      0.096629
      7 N1         -1.3820    5.0150    3.2350 n         1 MOL     -0.793918
      8 C3         -1.7690    4.3890    1.9460 c3        1 MOL      0.629721
      9 C4         -1.1230    5.1790    0.7660 c         1 MOL      0.282810
     10 O2         -1.1000    6.4080    0.8560 o         1 MOL     -0.555741
     11 C5         -3.3250    4.3710    1.9880 c3        1 MOL     -0.423049
     12 C6         -3.8090    3.4260    0.8870 c         1 MOL      0.717092
     13 O3         -5.1080    3.2940    0.8140 o         1 MOL     -0.702587
     14 O4         -3.0690    2.7360    0.1930 o         1 MOL     -0.702587
     15 H4         -1.5940    5.9830    3.4350 hn        1 MOL      0.330436
     16 H5         -1.3780    3.3690    1.9740 h1        1 MOL     -0.078265
     17 H6         -3.7080    5.3680    1.7920 hc        1 MOL      0.110337
     18 H7         -3.7680    3.8960    2.8650 hc        1 MOL      0.110337
     19 N2         -0.9410    4.4750   -0.3590 n         1 MOL     -0.107911
     20 C7         -0.5830    4.9870   -1.7200 c3        1 MOL     -0.160512
     21 C8         -1.7420    4.6650   -2.7250 c         1 MOL      0.678330
     22 O5         -1.8530    5.4760   -3.6600 o         1 MOL     -0.606802
     23 C9          0.7890    4.5290   -2.1740 c3        1 MOL      0.310381
     24 C10         1.8850    5.0640   -1.2500 c3        1 MOL     -0.166644
     25 C11         1.1980    5.1290   -3.4920 c3        1 MOL     -0.319994
     26 C12         3.1880    4.3650   -1.3330 c3        1 MOL     -0.131011
     27 H8         -1.1430    3.4930   -0.2830 hn        1 MOL      0.145853
     28 H9         -0.6570    6.0710   -1.6860 h1        1 MOL      0.082415
     29 H10         0.8260    3.4440   -2.1380 hc        1 MOL     -0.016477
     30 H11         1.6220    4.9230   -0.2020 hc        1 MOL      0.044129
     31 H12         2.0460    6.1320   -1.4120 hc        1 MOL      0.044129
     32 H13         2.2240    4.8520   -3.7150 hc        1 MOL      0.063082
     33 H14         0.6800    4.6530   -4.3220 hc        1 MOL      0.063082
     34 H15         1.0120    6.2100   -3.5400 hc        1 MOL      0.063082
     35 H16         3.7800    4.6110   -0.4490 hc        1 MOL      0.050189
     36 H17         3.0360    3.2860   -1.3130 hc        1 MOL      0.050189
     37 H18         3.8500    4.6760   -2.1410 hc        1 MOL      0.050189
     38 N3         -2.5830    3.6580   -2.5430 n         1 MOL     -0.615741
     39 C13        -3.4010    3.1920   -3.6970 c3        1 MOL      0.201321
     40 C14        -4.9010    2.8310   -3.3640 c         1 MOL      0.276175
     41 O6         -5.6700    2.7750   -4.3670 o         1 MOL     -0.553292
     42 C15        -2.7940    1.9640   -4.3610 c3        1 MOL     -0.246046
     43 C16        -2.4300    0.9270   -3.3720 c         1 MOL      0.789403
     44 O7         -3.1130    0.7980   -2.3070 o         1 MOL     -0.685725
     45 O8         -1.5460    0.1490   -3.7390 o         1 MOL     -0.685725
     46 H19        -2.5980    3.1210   -1.6930 hn        1 MOL      0.319099
     47 H20        -3.4220    3.9560   -4.4690 h1        1 MOL      0.080009
     48 H21        -1.8960    2.3410   -4.8690 hc        1 MOL      0.061162
     49 H22        -3.4320    1.6350   -5.1790 hc        1 MOL      0.061162
     50 N4         -5.4310    2.7460   -2.1280 n         1 MOL     -0.031247
     51 C17        -6.8230    2.4760   -1.8700 c3        1 MOL     -0.277502
     52 C18        -7.2610    0.9590   -1.6810 c         1 MOL      0.550203
     53 O9         -8.4770    0.6920   -1.5570 o         1 MOL     -0.619893
     54 H23        -4.8310    2.9390   -1.3410 hn        1 MOL      0.141252
     55 H24        -7.3710    2.7770   -2.7610 h1        1 MOL      0.114686
     56 H25        -7.1500    3.0430   -0.9930 h1        1 MOL      0.114686
     57 N5         -6.3530   -0.0030   -1.7790 n         1 MOL     -0.125997
     58 C19        -6.6970   -1.3970   -2.0600 c3        1 MOL     -0.248194
     59 C20        -7.1480   -2.2710   -0.8490 c         1 MOL      0.443030
     60 O10        -7.4260   -3.5040   -1.0010 o         1 MOL     -0.521181
     61 C21        -5.5330   -2.0080   -2.7720 c3        1 MOL     -0.053989
     62 C22        -4.4110   -2.3450   -1.8740 c         1 MOL      0.628044
     63 O11        -4.2480   -1.7950   -0.7360 o         1 MOL     -0.663169
     64 O12        -3.5220   -3.0460   -2.3800 o         1 MOL     -0.663169
     65 H26        -5.3770    0.2680   -1.7790 hn        1 MOL      0.161891
     66 H27        -7.5560   -1.3570   -2.7470 h1        1 MOL      0.141430
     67 H28        -5.1610   -1.3790   -3.5770 hc        1 MOL      0.058939
     68 H29        -5.8070   -2.8870   -3.3480 hc        1 MOL      0.058939
     69 N6         -7.0970   -1.6770    0.3630 n         1 MOL     -0.176443
     70 C23        -7.4480   -2.4270    1.6070 c3        1 MOL     -0.305767
     71 C24        -6.3500   -3.4420    2.0170 c         1 MOL      0.637756
     72 O13        -6.6430   -4.3900    2.7080 o         1 MOL     -0.577140
     73 H30        -6.9020   -0.6870    0.3950 hn        1 MOL      0.243659
     74 H31        -8.3410   -3.0210    1.4280 h1        1 MOL      0.119703
     75 H32        -7.5930   -1.7350    2.4450 h1        1 MOL      0.119703
     76 N7         -5.1050   -3.1560    1.5470 n         1 MOL     -0.398235
     77 C25        -3.8800   -3.8870    1.8980 c3        1 MOL      0.025087
     78 C26        -2.7020   -2.9650    2.2100 c         1 MOL      0.496837
     79 O14        -2.6870   -1.7800    1.9200 o         1 MOL     -0.589736
     80 C27        -3.3960   -4.7860    0.8080 c3        1 MOL      0.078435
     81 C28        -4.3940   -5.4630   -0.1180 c3        1 MOL     -0.373997
     82 C29        -3.6250   -6.4180   -1.0960 c         1 MOL      0.625727
     83 N8         -3.2860   -5.8910   -2.2170 n         1 MOL     -0.686630
     84 O15        -3.3040   -7.5610   -0.7900 o         1 MOL     -0.611188
     85 H33        -5.0840   -2.4640    0.8080 hn        1 MOL      0.202533
     86 H34        -4.0880   -4.4300    2.8180 h1        1 MOL      0.044384
     87 H35        -2.8150   -5.5780    1.2710 hc        1 MOL      0.047975
     88 H36        -2.7040   -4.2810    0.1360 hc        1 MOL      0.047975
     89 H37        -4.8720   -4.6490   -0.6650 hc        1 MOL      0.121646
     90 H38        -5.1070   -6.0030    0.5050 hc        1 MOL      0.121646
     91 H39        -3.6370   -4.9880   -2.4900 hn        1 MOL      0.328803
     92 H40        -2.6670   -6.3900   -2.8310 hn        1 MOL      0.328803
     93 N9         -1.6120   -3.4000    2.8010 n         1 MOL     -0.450564
     94 C30        -0.3120   -2.6580    2.8940 c3        1 MOL      0.268451
     95 C31         0.6770   -3.1210    1.8380 c         1 MOL      0.316460
     96 O16         0.6020   -4.2850    1.5500 o         1 MOL     -0.565734
     97 C32         0.3680   -2.9820    4.2150 c3        1 MOL      0.402634
     98 C33         1.5880   -2.0140    4.5460 c3        1 MOL     -0.395829
     99 C34        -0.5370   -2.8000    5.3950 c3        1 MOL     -0.395829
    100 H41        -1.5850   -4.4060    2.8870 hn        1 MOL      0.234742
    101 H42        -0.4710   -1.5890    2.7620 h1        1 MOL      0.018312
    102 H43         0.7210   -4.0110    4.2150 hc        1 MOL     -0.062623
    103 H44         1.2070   -1.0240    4.3090 hc        1 MOL      0.072512
    104 H45         2.0070   -2.1930    5.5400 hc        1 MOL      0.072512
    105 H46         2.4320   -2.2160    3.8830 hc        1 MOL      0.072512
    106 H47        -0.8430   -1.7700    5.5250 hc        1 MOL      0.072512
    107 H48        -1.3390   -3.5320    5.3130 hc        1 MOL      0.072512
    108 H49         0.0500   -3.0980    6.2710 hc        1 MOL      0.072512
    109 N10         1.4340   -2.2340    1.2070 n         1 MOL     -0.064189
    110 C35         2.5310   -2.4960    0.2580 c3        1 MOL      0.140769
    111 C36         3.8980   -2.2640    0.9700 c         1 MOL      0.265914
    112 O17         3.9510   -1.7240    2.0630 o         1 MOL     -0.335393
    113 C37         2.2940   -1.5690   -1.0190 c3        1 MOL     -0.187942
    114 C38         3.3200   -1.7160   -2.0340 c         1 MOL      0.692143
    115 N11         3.4960   -2.8270   -2.6310 n         1 MOL     -0.715233
    116 O18         4.1290   -0.7940   -2.2260 o         1 MOL     -0.587130
    117 H50         1.2070   -1.2500    1.2220 hn        1 MOL      0.070197
    118 H51         2.4840   -3.5370   -0.0940 h1        1 MOL      0.010675
    119 H52         2.2160   -0.5450   -0.6530 hc        1 MOL      0.084060
    120 H53         1.3160   -1.8010   -1.4410 hc        1 MOL      0.084060
    121 H54         2.8250   -3.5600   -2.4510 hn        1 MOL      0.339774
    122 H55         4.3110   -3.0240   -3.1940 hn        1 MOL      0.339774
    123 N12         5.0190   -2.6130    0.2860 n         1 MOL     -0.308487
    124 C39         6.4200   -2.4410    0.8260 c3        1 MOL      0.151871
    125 C40         6.8500   -0.9500    0.8860 c         1 MOL      0.220004
    126 O19         7.7510   -0.6820    1.6960 o         1 MOL     -0.517588
    127 C41         7.4140   -3.2330    0.1010 c3        1 MOL     -0.213427
    128 C42         7.2640   -3.2650   -1.4410 ca        1 MOL      0.068617
    129 C43         6.4620   -4.2560   -2.0540 ca        1 MOL     -0.116926
    130 C44         7.9700   -2.3380   -2.1890 ca        1 MOL     -0.116926
    131 C45         6.3860   -4.2780   -3.4810 ca        1 MOL     -0.318389
    132 C46         7.8940   -2.4010   -3.5970 ca        1 MOL     -0.318389
    133 C47         7.1330   -3.3400   -4.2270 ca        1 MOL      0.449327
    134 O20         7.1090   -3.4860   -5.5850 oh        1 MOL     -0.613863
    135 H56         4.9540   -2.8090   -0.6980 hn        1 MOL      0.116451
    136 H57         6.4340   -2.7740    1.8640 h1        1 MOL      0.071887
    137 H58         7.4150   -4.2920    0.3720 hc        1 MOL      0.086496
    138 H59         8.4700   -2.9720    0.2460 hc        1 MOL      0.086496
    139 H60         5.9760   -4.9440   -1.3920 ha        1 MOL      0.114597
    140 H61         8.4590   -1.5120   -1.7010 ha        1 MOL      0.114597
    141 H62         5.8300   -5.0260   -4.0390 ha        1 MOL      0.144168
    142 H63         8.3870   -1.7550   -4.3060 ha        1 MOL      0.144168
    143 H64         7.6850   -2.9260   -6.0990 ho        1 MOL      0.427364
    144 N13         6.2040   -0.0820    0.0750 n         1 MOL      0.136222
    145 C48         6.4320    1.3510    0.1310 c3        1 MOL     -0.241192
    146 C49         5.3710    2.0580    1.0810 c         1 MOL      0.502240
    147 O21         5.6670    3.1330    1.5680 o         1 MOL     -0.517282
    148 C50         6.2260    1.8880   -1.3000 c3        1 MOL      0.207276
    149 C51         7.3500    1.3970   -2.2380 c3        1 MOL     -0.252360
    150 C52         8.8140    1.8340   -1.9350 c         1 MOL      0.661195
    151 O22         9.7000    0.9440   -2.0340 o         1 MOL     -0.704436
    152 O23         9.1570    2.9930   -1.6710 o         1 MOL     -0.704436
    153 H65         5.5380   -0.4380   -0.6040 hn        1 MOL      0.191661
    154 H66         7.4030    1.6710    0.5090 h1        1 MOL      0.179618
    155 H67         6.2440    2.9690   -1.2250 hc        1 MOL     -0.055627
    156 H68         5.2500    1.5800   -1.6730 hc        1 MOL     -0.055627
    157 H69         6.9980    1.6490   -3.2390 hc        1 MOL      0.042680
    158 H70         7.4020    0.3190   -2.3410 hc        1 MOL      0.042680
    159 N14         4.3500    1.3370    1.5660 n         1 MOL     -0.271993
    160 C53         3.4830    1.7920    2.6410 c3        1 MOL      0.016372
    161 C54         3.8030    1.3410    4.1680 c         1 MOL      0.437967
    162 O24         3.7820    2.1910    5.0540 o         1 MOL     -0.547969
    163 C55         2.0100    1.3960    2.4080 c3        1 MOL     -0.282918
    164 C56         1.4160    1.9610    1.0960 c3        1 MOL      0.124309
    165 C57         0.1230    1.2380    0.6580 c         1 MOL      0.784920
    166 O25        -0.4830    1.5650   -0.3990 o         1 MOL     -0.728762
    167 O26        -0.2630    0.1770    1.1980 o         1 MOL     -0.728762
    168 H71         4.1510    0.3860    1.3020 hn        1 MOL      0.024581
    169 H72         3.5500    2.8860    2.7070 h1        1 MOL      0.078963
    170 H73         1.2670    1.7350    3.1310 hc        1 MOL      0.094254
    171 H74         1.8880    0.3130    2.4060 hc        1 MOL      0.094254
    172 H75         2.0390    1.7510    0.2370 hc        1 MOL     -0.013934
    173 H76         1.2240    3.0360    1.0970 hc        1 MOL     -0.013934
    174 N15         4.2450    0.1100    4.3990 n         1 MOL     -0.068515
    175 C58         4.7100   -0.4340    5.6510 c3        1 MOL     -0.152738
    176 H77         4.4460   -1.4900    5.7080 h1        1 MOL      0.062838
    177 H78         5.7930   -0.3260    5.7150 h1        1 MOL      0.062838
    178 H79         4.2420    0.1020    6.4760 h1        1 MOL      0.062838
    179 H80         4.1980   -0.5750    3.6580 hn        1 MOL      0.116180
    180 Ca1        -2.7520    0.2050    0.1500 Ca        1 MOL      1.710397
    181 O27        -2.4840    1.2560    2.8220 oh        1 MOL     -0.859923
    182 H81        -1.8640    1.8550    3.2490 ho        1 MOL      0.409080
    183 H82        -2.8420    0.7420    3.5360 ho        1 MOL      0.409080
    184 O28        -5.1330    0.6670    1.4540 oh        1 MOL     -0.859923
    185 H83        -4.9630    0.5510    2.3860 ho        1 MOL      0.409080
    186 H84        -5.4590    1.5620    1.3730 ho        1 MOL      0.409080
    187 O29        -1.2820   -1.6060   -1.7260 oh        1 MOL     -0.859923
    188 H85        -1.1900   -1.1210   -2.5440 ho        1 MOL      0.409080
    189 H86        -1.8330   -2.3560   -1.9480 ho        1 MOL      0.409080
@<TRIPOS>BOND
     1    1    2 1   
     2    1    4 1   
     3    1    5 1   
     4    1    6 1   
     5    2    3 2   
     6    2    7 1   
     7    7    8 1   
     8    7   15 1   
     9    8    9 1   
    10    8   11 1   
    11    8   16 1   
    12    9   10 2   
    13    9   19 1   
    14   11   12 1   
    15   11   17 1   
    16   11   18 1   
    17   12   13 1   
    18   12   14 1   
    19   19   20 1   
    20   19   27 1   
    21   20   21 1   
    22   20   23 1   
    23   20   28 1   
    24   21   22 2   
    25   21   38 1   
    26   23   24 1   
    27   23   25 1   
    28   23   29 1   
    29   24   26 1   
    30   24   30 1   
    31   24   31 1   
    32   25   32 1   
    33   25   33 1   
    34   25   34 1   
    35   26   35 1   
    36   26   36 1   
    37   26   37 1   
    38   38   39 1   
    39   38   46 1   
    40   39   40 1   
    41   39   42 1   
    42   39   47 1   
    43   40   41 2   
    44   40   50 1   
    45   42   43 1   
    46   42   48 1   
    47   42   49 1   
    48   43   44 1   
    49   43   45 1   
    50   50   51 1   
    51   50   54 1   
    52   51   52 1   
    53   51   55 1   
    54   51   56 1   
    55   52   53 2   
    56   52   57 1   
    57   57   58 1   
    58   57   65 1   
    59   58   59 1   
    60   58   61 1   
    61   58   66 1   
    62   59   60 2   
    63   59   69 1   
    64   61   62 1   
    65   61   67 1   
    66   61   68 1   
    67   62   63 1   
    68   62   64 1   
    69   69   70 1   
    70   69   73 1   
    71   70   71 1   
    72   70   74 1   
    73   70   75 1   
    74   71   72 2   
    75   71   76 1   
    76   76   77 1   
    77   76   85 1   
    78   77   78 1   
    79   77   80 1   
    80   77   86 1   
    81   78   79 2   
    82   78   93 1   
    83   80   81 1   
    84   80   87 1   
    85   80   88 1   
    86   81   82 1   
    87   81   89 1   
    88   81   90 1   
    89   82   83 1   
    90   82   84 2   
    91   83   91 1   
    92   83   92 1   
    93   93   94 1   
    94   93  100 1   
    95   94   95 1   
    96   94   97 1   
    97   94  101 1   
    98   95   96 2   
    99   95  109 1   
   100   97   98 1   
   101   97   99 1   
   102   97  102 1   
   103   98  103 1   
   104   98  104 1   
   105   98  105 1   
   106   99  106 1   
   107   99  107 1   
   108   99  108 1   
   109  109  110 1   
   110  109  117 1   
   111  110  111 1   
   112  110  113 1   
   113  110  118 1   
   114  111  112 2   
   115  111  123 1   
   116  113  114 1   
   117  113  119 1   
   118  113  120 1   
   119  114  115 1   
   120  114  116 2   
   121  115  121 1   
   122  115  122 1   
   123  123  124 1   
   124  123  135 1   
   125  124  125 1   
   126  124  127 1   
   127  124  136 1   
   128  125  126 2   
   129  125  144 1   
   130  127  128 1   
   131  127  137 1   
   132  127  138 1   
   133  128  129 ar  
   134  128  130 ar  
   135  129  131 ar  
   136  129  139 1   
   137  130  132 ar  
   138  130  140 1   
   139  131  133 ar  
   140  131  141 1   
   141  132  133 ar  
   142  132  142 1   
   143  133  134 1   
   144  134  143 1   
   145  144  145 1   
   146  144  153 1   
   147  145  146 1   
   148  145  148 1   
   149  145  154 1   
   150  146  147 2   
   151  146  159 1   
   152  148  149 1   
   153  148  155 1   
   154  148  156 1   
   155  149  150 1   
   156  149  157 1   
   157  149  158 1   
   158  150  151 1   
   159  150  152 1   
   160  159  160 1   
   161  159  168 1   
   162  160  161 1   
   163  160  163 1   
   164  160  169 1   
   165  161  162 2   
   166  161  174 1   
   167  163  164 1   
   168  163  170 1   
   169  163  171 1   
   170  164  165 1   
   171  164  172 1   
   172  164  173 1   
   173  165  166 1   
   174  165  167 1   
   175  174  175 1   
   176  174  179 1   
   177  175  176 1   
   178  175  177 1   
   179  175  178 1   
   180  181  182 1   
   181  181  183 1   
   182  184  185 1   
   183  184  186 1   
   184  187  188 1   
   185  187  189 1   
@<TRIPOS>SUBSTRUCTURE
     1 MOL         1 TEMP              0 ****  ****    0 ROOT
