@<TRIPOS>MOLECULE
MOL
  179   176     1     0     0
SMALL
resp


@<TRIPOS>ATOM
      1 C1         -0.4150    5.2600    4.5510 c3        1 MOL     -0.477036
      2 C2         -0.6960    4.2780    3.3660 c         1 MOL      0.712337
      3 O1          0.0110    4.4890    2.3840 o         1 MOL     -0.578533
      4 H1          0.6600    5.3300    4.7170 hc        1 MOL      0.122710
      5 H2         -0.8100    6.2470    4.3080 hc        1 MOL      0.122710
      6 H3         -0.8970    4.8870    5.4550 hc        1 MOL      0.122710
      7 N1         -1.6210    3.2790    3.3760 n         1 MOL     -0.688875
      8 C3         -2.0850    2.6000    2.1740 c3        1 MOL      0.307438
      9 C4         -3.2230    3.4890    1.5030 c         1 MOL      0.408510
     10 O2         -4.4420    3.2610    1.6350 o         1 MOL     -0.490485
     11 C5         -2.4810    1.2040    2.4470 c3        1 MOL     -0.087990
     12 C6         -3.0020    0.4410    1.2480 c         1 MOL      0.743514
     13 O3         -2.4440    0.6110    0.1310 o         1 MOL     -0.748510
     14 O4         -4.0640   -0.2560    1.3220 o         1 MOL     -0.748510
     15 H4         -1.9280    3.0590    4.3090 hn        1 MOL      0.348121
     16 H5         -1.3780    2.6020    1.3440 h1        1 MOL     -0.001877
     17 H6         -3.2650    1.3280    3.1910 hc        1 MOL      0.000902
     18 H7         -1.6840    0.5870    2.8720 hc        1 MOL      0.000902
     19 N2         -2.7640    4.4900    0.7040 n         1 MOL     -0.404870
     20 C7         -3.6000    5.5920    0.0690 c3        1 MOL      0.077706
     21 C8         -4.3720    5.1700   -1.1740 c         1 MOL      0.435916
     22 O5         -4.9990    6.0350   -1.8000 o         1 MOL     -0.550278
     23 C9         -2.6780    6.8010   -0.2750 c3        1 MOL     -0.413532
     24 C10        -1.6770    7.1940    0.8120 c3        1 MOL      0.243720
     25 C11        -1.1090    8.5460    0.8590 c3        1 MOL     -0.165126
     26 C12        -2.1330    9.3170    1.7520 c3        1 MOL     -0.071999
     27 N3         -2.0520   10.7120    1.3810 n4        1 MOL     -0.111696
     28 H8         -1.7720    4.4470    0.5380 hn        1 MOL      0.324664
     29 H9         -4.3870    5.8990    0.7580 h1        1 MOL      0.086273
     30 H10        -3.4410    7.5550   -0.4500 hc        1 MOL      0.127045
     31 H11        -2.0960    6.6040   -1.1750 hc        1 MOL      0.127045
     32 H12        -0.8450    6.4910    0.7390 hc        1 MOL      0.018929
     33 H13        -2.0950    6.9160    1.7690 hc        1 MOL      0.018929
     34 H14        -0.9410    9.0670   -0.0810 hc        1 MOL      0.076597
     35 H15        -0.1320    8.4850    1.3370 hc        1 MOL      0.076597
     36 H16        -1.9240    9.2440    2.8190 hx        1 MOL      0.094810
     37 H17        -3.1420    8.9890    1.5010 hx        1 MOL      0.094810
     38 H18        -1.0950   11.0320    1.3090 hn        1 MOL      0.265542
     39 H19        -2.4720   11.0300    0.5180 hn        1 MOL      0.265542
     40 H20        -2.3650   11.3620    2.0990 hn        1 MOL      0.265542
     41 N4         -4.3120    3.8910   -1.5190 n         1 MOL     -0.217087
     42 C13        -5.0790    3.1600   -2.6090 c3        1 MOL     -0.013400
     43 C14        -6.0300    2.0270   -2.0970 c         1 MOL      0.372704
     44 O6         -6.7960    1.3880   -2.9040 o         1 MOL     -0.524823
     45 C15        -4.0920    2.6140   -3.6300 c3        1 MOL     -0.147035
     46 C16        -3.1030    1.6990   -2.9550 c         1 MOL      0.758832
     47 O7         -1.9540    2.0280   -2.5650 o         1 MOL     -0.775072
     48 O8         -3.4930    0.5370   -2.8070 o         1 MOL     -0.775072
     49 H21        -3.5380    3.3780   -1.1200 hn        1 MOL      0.193355
     50 H22        -5.7790    3.8500   -3.0840 h1        1 MOL      0.115683
     51 H23        -3.5390    3.4000   -4.1330 hc        1 MOL      0.052565
     52 H24        -4.4740    2.0920   -4.5080 hc        1 MOL      0.052565
     53 N5         -6.0010    1.7750   -0.7490 n         1 MOL     -0.139589
     54 C17        -7.0450    1.0380   -0.0410 c3        1 MOL     -0.104571
     55 C18        -6.9310   -0.4560   -0.2180 c         1 MOL      0.469029
     56 O9         -7.8380   -1.2050    0.1970 o         1 MOL     -0.579566
     57 H25        -5.3300    2.2790   -0.1980 hn        1 MOL      0.123636
     58 H26        -8.0250    1.4180   -0.3140 h1        1 MOL      0.093412
     59 H27        -6.9950    1.3580    0.9990 h1        1 MOL      0.093412
     60 N6         -5.8960   -0.9490   -0.8800 n         1 MOL     -0.115347
     61 C19        -5.7460   -2.3650   -1.3330 c3        1 MOL     -0.253219
     62 C20        -5.4950   -3.3430   -0.2350 c         1 MOL      0.335477
     63 O10        -5.8500   -4.4840   -0.3470 o         1 MOL     -0.459345
     64 C21        -4.9350   -2.5230   -2.6400 c3        1 MOL     -0.345761
     65 C22        -3.5090   -2.9420   -2.4280 c         1 MOL      0.811754
     66 N7         -3.2940   -4.0910   -2.9580 n         1 MOL     -0.858364
     67 O11        -2.6840   -2.2080   -1.9190 o         1 MOL     -0.671827
     68 H28        -5.2270   -0.2780   -1.2350 hn        1 MOL      0.292344
     69 H29        -6.7580   -2.5240   -1.7060 h1        1 MOL      0.170861
     70 H30        -4.9980   -1.5750   -3.1860 hc        1 MOL      0.140574
     71 H31        -5.3580   -3.2560   -3.3240 hc        1 MOL      0.140574
     72 H32        -4.0810   -4.6990   -3.1370 hn        1 MOL      0.392402
     73 H33        -2.3770   -4.5080   -3.0110 hn        1 MOL      0.392402
     74 N8         -4.9890   -2.8110    0.9020 n         1 MOL      0.011792
     75 C23        -4.7710   -3.5470    2.1540 c3        1 MOL     -0.311117
     76 C24        -3.2960   -3.9030    2.3580 c         1 MOL      0.681264
     77 O12        -3.0690   -4.6200    3.3150 o         1 MOL     -0.585234
     78 H34        -4.7010   -1.8390    0.8600 hn        1 MOL      0.166340
     79 H35        -5.3910   -4.4320    2.3120 h1        1 MOL      0.139427
     80 H36        -4.9790   -2.8780    2.9970 h1        1 MOL      0.139427
     81 N9         -2.3530   -3.5120    1.5190 n         1 MOL     -0.516400
     82 C25        -0.9820   -3.8910    1.5760 c3        1 MOL      0.210629
     83 C26        -0.0120   -2.7350    1.1830 c         1 MOL      0.475366
     84 O13        -0.3230   -1.8520    0.3110 o         1 MOL     -0.599324
     85 C27        -0.7340   -5.0900    0.7240 c3        1 MOL      0.066096
     86 C28        -1.7730   -6.2140    0.8260 ca        1 MOL     -0.075458
     87 C29        -3.0140   -6.2300    0.0930 ca        1 MOL     -0.094914
     88 C30        -1.5050   -7.2450    1.7150 ca        1 MOL     -0.094914
     89 C31        -4.0370   -7.1870    0.3630 ca        1 MOL     -0.334873
     90 C32        -2.4810   -8.3030    1.9240 ca        1 MOL     -0.334873
     91 C33        -3.7840   -8.1850    1.3130 ca        1 MOL      0.425874
     92 O14        -4.7770   -9.1430    1.4280 oh        1 MOL     -0.475447
     93 H37        -2.6220   -2.9950    0.6900 hn        1 MOL      0.310011
     94 H38        -0.7730   -4.2400    2.5850 h1        1 MOL      0.033602
     95 H39         0.2180   -5.5910    0.8980 hc        1 MOL     -0.026236
     96 H40        -0.8230   -4.7370   -0.3040 hc        1 MOL     -0.026236
     97 H41        -3.1740   -5.4490   -0.6340 ha        1 MOL      0.122722
     98 H42        -0.5420   -7.2860    2.1880 ha        1 MOL      0.122722
     99 H43        -4.9900   -7.2440   -0.1540 ha        1 MOL      0.158417
    100 H44        -2.1630   -9.1370    2.5220 ha        1 MOL      0.158417
    101 H45        -4.4950   -9.7610    2.0960 ho        1 MOL      0.340308
    102 N10         1.1810   -2.7190    1.7610 n         1 MOL     -0.476727
    103 C34         2.2130   -1.6600    1.4930 c3        1 MOL     -0.123287
    104 C35         3.5340   -2.4150    1.2520 c         1 MOL      0.484626
    105 O15         4.0450   -3.3110    2.0200 o         1 MOL     -0.516120
    106 C36         2.3840   -0.5270    2.4910 c3        1 MOL      0.159288
    107 C37         2.7790   -1.0000    3.8780 c3        1 MOL     -0.103666
    108 C38         1.1300    0.3610    2.4670 c3        1 MOL     -0.512852
    109 C39         2.9640    0.1020    4.9460 c3        1 MOL     -0.190178
    110 H46         1.3130   -3.4410    2.4570 hn        1 MOL      0.303917
    111 H47         1.9330   -1.2360    0.5230 h1        1 MOL      0.161925
    112 H48         3.1930    0.1260    2.1860 hc        1 MOL      0.008489
    113 H49         3.7550   -1.4950    3.8550 hc        1 MOL      0.066379
    114 H50         1.9810   -1.6470    4.2460 hc        1 MOL      0.066379
    115 H51         1.2830    1.2290    3.1030 hc        1 MOL      0.164573
    116 H52         0.8950    0.6380    1.4450 hc        1 MOL      0.164573
    117 H53         0.2460   -0.1470    2.8470 hc        1 MOL      0.164573
    118 H54         2.0320    0.6620    5.0060 hc        1 MOL      0.050644
    119 H55         3.1320   -0.3590    5.9180 hc        1 MOL      0.050644
    120 H56         3.6960    0.8720    4.6800 hc        1 MOL      0.050644
    121 N11         4.1210   -2.0980    0.0650 n         1 MOL     -0.316020
    122 C40         5.4000   -2.7230   -0.3810 c3        1 MOL     -0.017173
    123 C41         6.6710   -2.0880    0.1940 c         1 MOL      0.404170
    124 O16         6.7180   -1.0810    0.8330 o         1 MOL     -0.341551
    125 C42         5.3400   -2.6200   -1.9730 c3        1 MOL     -0.353529
    126 O17         5.1430   -1.2880   -2.3840 oh        1 MOL     -0.378297
    127 H57         3.6940   -1.4860   -0.6070 hn        1 MOL      0.223858
    128 H58         5.3320   -3.7840   -0.1550 h1        1 MOL      0.098778
    129 H59         4.5170   -3.2140   -2.3690 h1        1 MOL      0.167259
    130 H60         6.2210   -3.1380   -2.3430 h1        1 MOL      0.167259
    131 H61         4.5240   -1.2740   -3.1180 ho        1 MOL      0.381683
    132 N12         7.8150   -2.7050   -0.1500 n         1 MOL     -0.396015
    133 C43         9.1450   -2.2360    0.1350 c3        1 MOL      0.187422
    134 C44         9.4220   -0.8940   -0.6030 c         1 MOL      0.403948
    135 O18        10.2100   -0.0810   -0.1740 o         1 MOL     -0.513776
    136 C45        10.0880   -3.2760   -0.3240 c3        1 MOL     -0.233578
    137 H62         7.7620   -3.6260   -0.5550 hn        1 MOL      0.264427
    138 H63         9.2320   -2.0410    1.2050 h1        1 MOL      0.064312
    139 H64         9.8360   -3.4940   -1.3640 hc        1 MOL      0.068055
    140 H65        11.0910   -2.8690   -0.2350 hc        1 MOL      0.068055
    141 H66         9.9190   -4.1960    0.2330 hc        1 MOL      0.068055
    142 N13         8.7060   -0.5630   -1.6720 n         1 MOL     -0.274439
    143 C46         8.7010    0.7620   -2.3040 c3        1 MOL      0.109617
    144 C47         7.7070    1.8220   -1.7210 c         1 MOL      0.327799
    145 O19         8.1100    2.9530   -1.3880 o         1 MOL     -0.482879
    146 C48         8.2790    0.4800   -3.7790 c3        1 MOL     -0.171310
    147 H67         8.1820   -1.3320   -2.0710 hn        1 MOL      0.197142
    148 H68         9.7350    1.1140   -2.3310 h1        1 MOL      0.090592
    149 H69         8.8300   -0.3400   -4.2410 hc        1 MOL      0.035837
    150 H70         7.2140    0.2690   -3.7400 hc        1 MOL      0.035837
    151 H71         8.4830    1.4440   -4.2440 hc        1 MOL      0.035837
    152 N14         6.4500    1.4000   -1.4260 n         1 MOL     -0.036244
    153 C49         5.4530    2.2620   -0.7710 c3        1 MOL     -0.168348
    154 C50         5.9710    2.7500    0.5990 c         1 MOL      0.391371
    155 O20         5.7290    3.9120    0.9890 o         1 MOL     -0.531087
    156 C51         4.0370    1.6410   -0.6470 c3        1 MOL     -0.020546
    157 C52         3.1630    1.7450   -1.9080 c3        1 MOL     -0.167994
    158 C53         1.7590    1.1210   -1.8240 c         1 MOL      0.772266
    159 O21         1.1520    0.8420   -2.9040 o         1 MOL     -0.754204
    160 O22         1.1450    0.8820   -0.7480 o         1 MOL     -0.754204
    161 H72         6.1690    0.4680   -1.7030 hn        1 MOL      0.124342
    162 H73         5.4840    3.1420   -1.4210 h1        1 MOL      0.113985
    163 H74         3.4310    2.1050    0.1350 hc        1 MOL      0.085682
    164 H75         4.0880    0.5770   -0.4240 hc        1 MOL      0.085682
    165 H76         3.7260    1.2920   -2.7140 hc        1 MOL      0.025974
    166 H77         2.9360    2.7720   -2.2070 hc        1 MOL      0.025974
    167 N15         6.6910    1.8740    1.3460 n         1 MOL     -0.003042
    168 C54         7.2460    2.1580    2.6530 c3        1 MOL     -0.294811
    169 H78         8.3280    2.0360    2.6210 h1        1 MOL      0.109855
    170 H79         7.0050    3.1830    2.9360 h1        1 MOL      0.109855
    171 H80         6.8250    1.4700    3.3850 h1        1 MOL      0.109855
    172 H81         6.6970    0.9200    1.0210 hn        1 MOL      0.061617
    173 Ca1        -1.0150   -0.2450   -1.7760 Ca        1 MOL      1.745342
    174 O23         0.3040   -2.3820   -2.7160 oh        1 MOL     -0.750691
    175 H82         1.1380   -2.6100   -2.3200 ho        1 MOL      0.378943
    176 H83         0.0020   -3.1870   -3.1380 ho        1 MOL      0.378943
    177 O24        -1.1890   -0.9390   -4.6620 oh        1 MOL     -0.750691
    178 H84        -2.1320   -1.0130   -4.8150 ho        1 MOL      0.378943
    179 H85        -0.8210   -0.7310   -5.5230 ho        1 MOL      0.378943
@<TRIPOS>BOND
     1    1    2 1   
     2    1    4 1   
     3    1    5 1   
     4    1    6 1   
     5    2    3 2   
     6    2    7 1   
     7    7    8 1   
     8    7   15 1   
     9    8    9 1   
    10    8   11 1   
    11    8   16 1   
    12    9   10 2   
    13    9   19 1   
    14   11   12 1   
    15   11   17 1   
    16   11   18 1   
    17   12   13 1   
    18   12   14 1   
    19   19   20 1   
    20   19   28 1   
    21   20   21 1   
    22   20   23 1   
    23   20   29 1   
    24   21   22 2   
    25   21   41 1   
    26   23   24 1   
    27   23   30 1   
    28   23   31 1   
    29   24   25 1   
    30   24   32 1   
    31   24   33 1   
    32   25   26 1   
    33   25   34 1   
    34   25   35 1   
    35   26   27 1   
    36   26   36 1   
    37   26   37 1   
    38   27   38 1   
    39   27   39 1   
    40   27   40 1   
    41   41   42 1   
    42   41   49 1   
    43   42   43 1   
    44   42   45 1   
    45   42   50 1   
    46   43   44 2   
    47   43   53 1   
    48   45   46 1   
    49   45   51 1   
    50   45   52 1   
    51   46   47 1   
    52   46   48 1   
    53   53   54 1   
    54   53   57 1   
    55   54   55 1   
    56   54   58 1   
    57   54   59 1   
    58   55   56 2   
    59   55   60 1   
    60   60   61 1   
    61   60   68 1   
    62   61   62 1   
    63   61   64 1   
    64   61   69 1   
    65   62   63 2   
    66   62   74 1   
    67   64   65 1   
    68   64   70 1   
    69   64   71 1   
    70   65   66 1   
    71   65   67 2   
    72   66   72 1   
    73   66   73 1   
    74   74   75 1   
    75   74   78 1   
    76   75   76 1   
    77   75   79 1   
    78   75   80 1   
    79   76   77 2   
    80   76   81 1   
    81   81   82 1   
    82   81   93 1   
    83   82   83 1   
    84   82   85 1   
    85   82   94 1   
    86   83   84 2   
    87   83  102 1   
    88   85   86 1   
    89   85   95 1   
    90   85   96 1   
    91   86   87 ar  
    92   86   88 ar  
    93   87   89 ar  
    94   87   97 1   
    95   88   90 ar  
    96   88   98 1   
    97   89   91 ar  
    98   89   99 1   
    99   90   91 ar  
   100   90  100 1   
   101   91   92 1   
   102   92  101 1   
   103  102  103 1   
   104  102  110 1   
   105  103  104 1   
   106  103  106 1   
   107  103  111 1   
   108  104  105 2   
   109  104  121 1   
   110  106  107 1   
   111  106  108 1   
   112  106  112 1   
   113  107  109 1   
   114  107  113 1   
   115  107  114 1   
   116  108  115 1   
   117  108  116 1   
   118  108  117 1   
   119  109  118 1   
   120  109  119 1   
   121  109  120 1   
   122  121  122 1   
   123  121  127 1   
   124  122  123 1   
   125  122  125 1   
   126  122  128 1   
   127  123  124 2   
   128  123  132 1   
   129  125  126 1   
   130  125  129 1   
   131  125  130 1   
   132  126  131 1   
   133  132  133 1   
   134  132  137 1   
   135  133  134 1   
   136  133  136 1   
   137  133  138 1   
   138  134  135 2   
   139  134  142 1   
   140  136  139 1   
   141  136  140 1   
   142  136  141 1   
   143  142  143 1   
   144  142  147 1   
   145  143  144 1   
   146  143  146 1   
   147  143  148 1   
   148  144  145 2   
   149  144  152 1   
   150  146  149 1   
   151  146  150 1   
   152  146  151 1   
   153  152  153 1   
   154  152  161 1   
   155  153  154 1   
   156  153  156 1   
   157  153  162 1   
   158  154  155 2   
   159  154  167 1   
   160  156  157 1   
   161  156  163 1   
   162  156  164 1   
   163  157  158 1   
   164  157  165 1   
   165  157  166 1   
   166  158  159 1   
   167  158  160 1   
   168  167  168 1   
   169  167  172 1   
   170  168  169 1   
   171  168  170 1   
   172  168  171 1   
   173  174  175 1   
   174  174  176 1   
   175  177  178 1   
   176  177  179 1   
@<TRIPOS>SUBSTRUCTURE
     1 MOL         1 TEMP              0 ****  ****    0 ROOT
