@<TRIPOS>MOLECULE
MOL
  186   183     1     0     0
SMALL
resp


@<TRIPOS>ATOM
      1 C1          0.5550   -2.3550    6.0170 c3        1 MOL     -0.349715
      2 C2          0.9780   -2.2470    4.5570 c         1 MOL      0.904607
      3 O1          0.3560   -2.8410    3.7260 o         1 MOL     -0.695504
      4 H1          0.2150   -1.3820    6.3690 hc        1 MOL      0.076408
      5 H2         -0.2560   -3.0770    6.1080 hc        1 MOL      0.076408
      6 H3          1.4030   -2.6830    6.6180 hc        1 MOL      0.076408
      7 N1          2.0710   -1.6080    4.1750 n         1 MOL     -0.781862
      8 C3          2.6130   -1.7220    2.8400 c3        1 MOL      0.612040
      9 C4          2.9580   -3.1700    2.5230 c         1 MOL      0.375693
     10 O2          3.7650   -3.8470    3.1760 o         1 MOL     -0.571917
     11 C5          3.8650   -0.7840    2.9640 c3        1 MOL     -0.517751
     12 C6          4.4870   -0.4990    1.6300 c         1 MOL      1.075487
     13 O3          5.6350    0.0430    1.6110 o         1 MOL     -0.764087
     14 O4          3.9170   -0.8960    0.6250 o         1 MOL     -0.764087
     15 H4          2.7620   -1.2660    4.8210 hn        1 MOL      0.315508
     16 H5          1.9990   -1.2710    2.0620 h1        1 MOL     -0.125419
     17 H6          4.5650   -1.2540    3.6490 hc        1 MOL      0.084730
     18 H7          3.4660    0.1830    3.2660 hc        1 MOL      0.084730
     19 N2          2.2460   -3.7020    1.5320 n         1 MOL     -0.077188
     20 C7          2.2950   -5.0840    1.0290 c3        1 MOL     -0.295469
     21 C8          3.5020   -5.2050    0.0780 c         1 MOL      0.673772
     22 O5          4.2660   -6.2000    0.1760 o         1 MOL     -0.637107
     23 C9          1.0120   -5.5530    0.3130 c3        1 MOL      0.222777
     24 C10        -0.2390   -5.4030    1.3080 c3        1 MOL      0.085824
     25 C11         1.0720   -7.0530   -0.1330 c3        1 MOL     -0.311087
     26 C12        -1.6270   -5.7940    0.7970 c3        1 MOL     -0.225335
     27 H8          1.6080   -3.0890    1.0520 hn        1 MOL      0.099137
     28 H9          2.5550   -5.7520    1.8570 h1        1 MOL      0.097960
     29 H10         0.9390   -5.0740   -0.6590 hc        1 MOL      0.030197
     30 H11        -0.3370   -4.3570    1.5760 hc        1 MOL      0.021567
     31 H12        -0.1050   -6.0800    2.1500 hc        1 MOL      0.021567
     32 H13         1.1080   -7.6700    0.7560 hc        1 MOL      0.057816
     33 H14         0.1720   -7.4180   -0.6300 hc        1 MOL      0.057816
     34 H15         2.0060   -7.2700   -0.6620 hc        1 MOL      0.057816
     35 H16        -1.7030   -5.4830   -0.2370 hc        1 MOL      0.048084
     36 H17        -1.6640   -6.8790    0.8690 hc        1 MOL      0.048084
     37 H18        -2.3700   -5.4970    1.5410 hc        1 MOL      0.048084
     38 N3          3.7410   -4.2670   -0.8270 n         1 MOL     -0.317620
     39 C13         4.5750   -4.3770   -1.9900 c3        1 MOL     -0.029493
     40 C14         5.9320   -3.6300   -1.9030 c         1 MOL      0.403172
     41 O6          6.7460   -3.6880   -2.8250 o         1 MOL     -0.502640
     42 C15         3.8440   -4.1690   -3.3140 c3        1 MOL     -0.103353
     43 C16         2.8870   -2.9530   -3.3850 c         1 MOL      0.775048
     44 O7          2.4490   -2.7130   -4.5460 o         1 MOL     -0.715090
     45 O8          2.7330   -2.1360   -2.4000 o         1 MOL     -0.715090
     46 H19         3.0000   -3.5850   -0.8320 hn        1 MOL      0.227029
     47 H20         4.9030   -5.4140   -2.0730 h1        1 MOL      0.076101
     48 H21         3.2050   -5.0470   -3.4390 hc        1 MOL      0.017483
     49 H22         4.5580   -3.9920   -4.1140 hc        1 MOL      0.017483
     50 N4          6.2400   -2.8830   -0.7950 n         1 MOL     -0.068721
     51 C17         7.5500   -2.4300   -0.3800 c3        1 MOL     -0.163149
     52 C18         8.0250   -1.0520   -0.8590 c         1 MOL      0.525579
     53 O9          9.0790   -0.9580   -1.4900 o         1 MOL     -0.579407
     54 H23         5.4750   -2.6560   -0.1700 hn        1 MOL      0.079525
     55 H24         8.3380   -3.1590   -0.6020 h1        1 MOL      0.060200
     56 H25         7.3600   -2.3750    0.6980 h1        1 MOL      0.060200
     57 N5          7.2040   -0.0120   -0.7090 n         1 MOL     -0.266429
     58 C19         7.5010    1.3040   -1.3180 c3        1 MOL      0.021689
     59 C20         7.4260    2.4860   -0.3130 c         1 MOL      0.422467
     60 O10         8.0110    3.5330   -0.5520 o         1 MOL     -0.546906
     61 C21         6.5500    1.5540   -2.5420 c3        1 MOL      0.046241
     62 C22         5.0770    1.2700   -2.2760 c         1 MOL      0.509702
     63 O11         4.5960    1.7100   -1.2230 o         1 MOL     -0.659092
     64 O12         4.4410    0.5000   -3.0310 o         1 MOL     -0.659092
     65 H26         6.3600   -0.2090   -0.1940 hn        1 MOL      0.179397
     66 H27         8.4750    1.3390   -1.8020 h1        1 MOL      0.058996
     67 H28         6.7800    0.8800   -3.3650 hc        1 MOL      0.004340
     68 H29         6.7380    2.5800   -2.8650 hc        1 MOL      0.004340
     69 N6          7.0800    2.2480    0.9270 n         1 MOL     -0.230662
     70 C23         6.9050    3.3470    1.9150 c3        1 MOL     -0.006062
     71 C24         5.6520    4.2580    1.7140 c         1 MOL      0.600195
     72 O13         5.5940    5.3990    2.1880 o         1 MOL     -0.623072
     73 H30         6.7340    1.3260    1.1610 hn        1 MOL      0.199041
     74 H31         7.8430    3.9020    1.8850 h1        1 MOL      0.024545
     75 H32         6.6780    2.8250    2.8390 h1        1 MOL      0.024545
     76 N7          4.5850    3.6800    1.1080 n         1 MOL     -0.319274
     77 C25         3.2430    4.2800    1.0530 c3        1 MOL      0.077370
     78 C26         2.1970    3.1640    1.1740 c         1 MOL      0.409055
     79 O14         2.4220    2.0690    0.6910 o         1 MOL     -0.562525
     80 C27         3.0410    4.9620   -0.2910 c3        1 MOL     -0.176243
     81 C28         3.5560    6.4410   -0.3320 c3        1 MOL     -0.160137
     82 C29         3.8570    7.1940   -1.6990 c         1 MOL      0.686357
     83 N8          4.0720    8.4640   -1.6640 n         1 MOL     -0.805568
     84 O15         3.9590    6.5780   -2.7610 o         1 MOL     -0.578165
     85 H33         4.7190    2.7620    0.7010 hn        1 MOL      0.208425
     86 H34         3.0990    4.9030    1.9320 h1        1 MOL      0.031296
     87 H35         1.9780    4.8770   -0.5180 hc        1 MOL      0.070382
     88 H36         3.6580    4.4520   -1.0330 hc        1 MOL      0.070382
     89 H37         4.5400    6.5550    0.1230 hc        1 MOL      0.062207
     90 H38         2.9110    7.0610    0.2820 hc        1 MOL      0.062207
     91 H39         3.9310    9.1110   -0.8940 hn        1 MOL      0.354232
     92 H40         4.4420    8.8360   -2.5180 hn        1 MOL      0.354232
     93 N9          1.0370    3.5050    1.7410 n         1 MOL     -0.286048
     94 C30        -0.0820    2.6210    2.0160 c3        1 MOL      0.024322
     95 C31        -1.2680    3.1090    1.2170 c         1 MOL      0.377792
     96 O16        -1.8290    4.1970    1.4270 o         1 MOL     -0.561722
     97 C32        -0.3970    2.5720    3.5360 c3        1 MOL      0.206707
     98 C33        -1.3270    1.4360    3.9670 c3        1 MOL     -0.280241
     99 C34         0.8420    2.6270    4.4860 c3        1 MOL     -0.280241
    100 H41         0.9410    4.4730    2.0410 hn        1 MOL      0.248027
    101 H42         0.0790    1.5850    1.6990 h1        1 MOL      0.169276
    102 H43        -0.9710    3.4880    3.7030 hc        1 MOL     -0.019741
    103 H44        -2.1660    1.2680    3.2840 hc        1 MOL      0.059509
    104 H45        -0.8070    0.4820    3.9790 hc        1 MOL      0.059509
    105 H46        -1.8030    1.6470    4.9210 hc        1 MOL      0.059509
    106 H47         0.6310    2.5070    5.5410 hc        1 MOL      0.059509
    107 H48         1.5640    1.8660    4.1710 hc        1 MOL      0.059509
    108 H49         1.2530    3.6390    4.4890 hc        1 MOL      0.059509
    109 N10        -1.6500    2.2990    0.2330 n         1 MOL     -0.192644
    110 C35        -2.8420    2.4970   -0.5720 c3        1 MOL      0.084599
    111 C36        -4.1250    2.0790    0.2730 c         1 MOL      0.331017
    112 O17        -3.9600    1.2720    1.2010 o         1 MOL     -0.284798
    113 C37        -2.7200    1.7550   -1.9290 c3        1 MOL     -0.146758
    114 C38        -3.7330    1.9510   -3.0360 c         1 MOL      0.666468
    115 N11        -3.2680    2.3390   -4.2090 n         1 MOL     -0.845918
    116 O18        -4.8650    1.5720   -2.9350 o         1 MOL     -0.531737
    117 H50        -1.1710    1.4140    0.1430 hn        1 MOL      0.116743
    118 H51        -2.9900    3.5600   -0.8000 h1        1 MOL      0.044189
    119 H52        -2.7780    0.6930   -1.7170 hc        1 MOL      0.068024
    120 H53        -1.7090    1.9390   -2.2930 hc        1 MOL      0.068024
    121 H54        -2.2920    2.4220   -4.4430 hn        1 MOL      0.390986
    122 H55        -3.8870    1.9580   -4.9140 hn        1 MOL      0.390986
    123 N12        -5.3120    2.6170   -0.0570 n         1 MOL     -0.462979
    124 C39        -6.6710    2.0240    0.2290 c3        1 MOL      0.228172
    125 C40        -6.8260    0.4900    0.0480 c         1 MOL      0.610051
    126 O19        -7.3510   -0.1760    0.9560 o         1 MOL     -0.569221
    127 C41        -7.7400    2.7300   -0.5690 c3        1 MOL     -0.207013
    128 C42        -9.1780    2.2530   -0.2230 ca        1 MOL     -0.036951
    129 C43        -9.7340    2.8360    0.9660 ca        1 MOL     -0.078026
    130 C44        -9.9560    1.3370   -0.9360 ca        1 MOL     -0.078026
    131 C45       -10.9030    2.3890    1.5940 ca        1 MOL     -0.361783
    132 C46       -11.2710    1.0340   -0.5010 ca        1 MOL     -0.361783
    133 C47       -11.6740    1.3780    0.8620 ca        1 MOL      0.409608
    134 O20       -12.7570    0.9460    1.4870 oh        1 MOL     -0.489783
    135 H56        -5.3440    3.4160   -0.6690 hn        1 MOL      0.282571
    136 H57        -6.9750    2.3130    1.2320 h1        1 MOL      0.010295
    137 H58        -7.6040    2.4840   -1.6220 hc        1 MOL      0.072654
    138 H59        -7.7000    3.8120   -0.5000 hc        1 MOL      0.072654
    139 H60        -9.1460    3.5270    1.5440 ha        1 MOL      0.130866
    140 H61        -9.5540    0.9070   -1.8340 ha        1 MOL      0.130866
    141 H62       -11.2870    2.6630    2.5660 ha        1 MOL      0.166550
    142 H63       -11.9560    0.4110   -1.0510 ha        1 MOL      0.166550
    143 H64       -13.1840    0.2680    0.9520 ho        1 MOL      0.367042
    144 N13        -6.3080   -0.0950   -1.0340 n         1 MOL     -0.287124
    145 C48        -6.2500   -1.5230   -1.2520 c3        1 MOL      0.018840
    146 C49        -5.4090   -2.2550   -0.2190 c         1 MOL      0.316927
    147 O21        -5.6870   -3.4030   -0.0610 o         1 MOL     -0.491806
    148 C50        -5.8950   -1.8460   -2.7370 c3        1 MOL     -0.057801
    149 C51        -6.8860   -1.1970   -3.7000 c3        1 MOL     -0.069804
    150 C52        -7.0940   -2.0370   -4.9990 c         1 MOL      0.624960
    151 O22        -6.2320   -2.9490   -5.3210 o         1 MOL     -0.718589
    152 O23        -8.0230   -1.6240   -5.7370 o         1 MOL     -0.718589
    153 H65        -5.8420    0.5180   -1.6940 hn        1 MOL      0.140462
    154 H66        -7.2660   -1.8880   -1.1630 h1        1 MOL      0.076082
    155 H67        -5.9260   -2.9330   -2.8080 hc        1 MOL      0.048579
    156 H68        -4.8900   -1.4530   -2.9010 hc        1 MOL      0.048579
    157 H69        -6.5690   -0.1980   -3.9880 hc        1 MOL      0.000975
    158 H70        -7.8510   -0.9960   -3.2330 hc        1 MOL      0.000975
    159 N14        -4.4300   -1.5910    0.4760 n         1 MOL     -0.094901
    160 C53        -3.5510   -2.2350    1.4290 c3        1 MOL      0.000193
    161 C54        -4.1830   -1.9590    2.8210 c         1 MOL      0.388929
    162 O24        -4.1480   -2.7600    3.7600 o         1 MOL     -0.565162
    163 C55        -2.1420   -1.6860    1.3420 c3        1 MOL      0.177253
    164 C56        -1.4200   -1.9420    0.0150 c3        1 MOL     -0.048587
    165 C57        -0.0800   -1.2740   -0.0860 c         1 MOL      0.923263
    166 O25         0.8990   -1.9800   -0.4350 o         1 MOL     -0.831934
    167 O26         0.0810   -0.0280   -0.0950 o         1 MOL     -0.831934
    168 H71        -4.3160   -0.6240    0.2130 hn        1 MOL      0.078589
    169 H72        -3.5440   -3.3070    1.2230 h1        1 MOL      0.060639
    170 H73        -1.5920   -2.1810    2.1330 hc        1 MOL     -0.025321
    171 H74        -2.0620   -0.6470    1.6770 hc        1 MOL     -0.025321
    172 H75        -2.0490   -1.5970   -0.8100 hc        1 MOL     -0.021369
    173 H76        -1.2870   -3.0150    0.0090 hc        1 MOL     -0.021369
    174 N15        -4.8720   -0.8450    2.8860 n         1 MOL      0.076703
    175 C58        -5.4890   -0.3760    4.1010 c3        1 MOL     -0.253584
    176 H77        -5.4550    0.7130    4.1270 h1        1 MOL      0.081853
    177 H78        -6.5260   -0.7080    4.1350 h1        1 MOL      0.081853
    178 H79        -4.9500   -0.7760    4.9600 h1        1 MOL      0.081853
    179 H80        -4.8910   -0.2110    2.1030 hn        1 MOL     -0.054980
    180 Ca1         2.3460    0.0600   -1.2230 Ca        1 MOL      1.746594
    181 O27         0.4360    0.1120   -3.2120 oh        1 MOL     -0.787995
    182 H81         0.5930    0.6240   -3.9990 ho        1 MOL      0.382929
    183 H82        -0.4860   -0.1430   -3.2690 ho        1 MOL      0.382929
    184 O28         2.3100    2.6110   -2.3490 oh        1 MOL     -0.787995
    185 H83         2.0300    3.3390   -2.9010 ho        1 MOL      0.382929
    186 H84         3.2640    2.7170   -2.2790 ho        1 MOL      0.382929
@<TRIPOS>BOND
     1    1    2 1   
     2    1    4 1   
     3    1    5 1   
     4    1    6 1   
     5    2    3 2   
     6    2    7 1   
     7    7    8 1   
     8    7   15 1   
     9    8    9 1   
    10    8   11 1   
    11    8   16 1   
    12    9   10 2   
    13    9   19 1   
    14   11   12 1   
    15   11   17 1   
    16   11   18 1   
    17   12   13 1   
    18   12   14 1   
    19   19   20 1   
    20   19   27 1   
    21   20   21 1   
    22   20   23 1   
    23   20   28 1   
    24   21   22 2   
    25   21   38 1   
    26   23   24 1   
    27   23   25 1   
    28   23   29 1   
    29   24   26 1   
    30   24   30 1   
    31   24   31 1   
    32   25   32 1   
    33   25   33 1   
    34   25   34 1   
    35   26   35 1   
    36   26   36 1   
    37   26   37 1   
    38   38   39 1   
    39   38   46 1   
    40   39   40 1   
    41   39   42 1   
    42   39   47 1   
    43   40   41 2   
    44   40   50 1   
    45   42   43 1   
    46   42   48 1   
    47   42   49 1   
    48   43   44 1   
    49   43   45 1   
    50   50   51 1   
    51   50   54 1   
    52   51   52 1   
    53   51   55 1   
    54   51   56 1   
    55   52   53 2   
    56   52   57 1   
    57   57   58 1   
    58   57   65 1   
    59   58   59 1   
    60   58   61 1   
    61   58   66 1   
    62   59   60 2   
    63   59   69 1   
    64   61   62 1   
    65   61   67 1   
    66   61   68 1   
    67   62   63 1   
    68   62   64 1   
    69   69   70 1   
    70   69   73 1   
    71   70   71 1   
    72   70   74 1   
    73   70   75 1   
    74   71   72 2   
    75   71   76 1   
    76   76   77 1   
    77   76   85 1   
    78   77   78 1   
    79   77   80 1   
    80   77   86 1   
    81   78   79 2   
    82   78   93 1   
    83   80   81 1   
    84   80   87 1   
    85   80   88 1   
    86   81   82 1   
    87   81   89 1   
    88   81   90 1   
    89   82   83 1   
    90   82   84 2   
    91   83   91 1   
    92   83   92 1   
    93   93   94 1   
    94   93  100 1   
    95   94   95 1   
    96   94   97 1   
    97   94  101 1   
    98   95   96 2   
    99   95  109 1   
   100   97   98 1   
   101   97   99 1   
   102   97  102 1   
   103   98  103 1   
   104   98  104 1   
   105   98  105 1   
   106   99  106 1   
   107   99  107 1   
   108   99  108 1   
   109  109  110 1   
   110  109  117 1   
   111  110  111 1   
   112  110  113 1   
   113  110  118 1   
   114  111  112 2   
   115  111  123 1   
   116  113  114 1   
   117  113  119 1   
   118  113  120 1   
   119  114  115 1   
   120  114  116 2   
   121  115  121 1   
   122  115  122 1   
   123  123  124 1   
   124  123  135 1   
   125  124  125 1   
   126  124  127 1   
   127  124  136 1   
   128  125  126 2   
   129  125  144 1   
   130  127  128 1   
   131  127  137 1   
   132  127  138 1   
   133  128  129 ar  
   134  128  130 ar  
   135  129  131 ar  
   136  129  139 1   
   137  130  132 ar  
   138  130  140 1   
   139  131  133 ar  
   140  131  141 1   
   141  132  133 ar  
   142  132  142 1   
   143  133  134 1   
   144  134  143 1   
   145  144  145 1   
   146  144  153 1   
   147  145  146 1   
   148  145  148 1   
   149  145  154 1   
   150  146  147 2   
   151  146  159 1   
   152  148  149 1   
   153  148  155 1   
   154  148  156 1   
   155  149  150 1   
   156  149  157 1   
   157  149  158 1   
   158  150  151 1   
   159  150  152 1   
   160  159  160 1   
   161  159  168 1   
   162  160  161 1   
   163  160  163 1   
   164  160  169 1   
   165  161  162 2   
   166  161  174 1   
   167  163  164 1   
   168  163  170 1   
   169  163  171 1   
   170  164  165 1   
   171  164  172 1   
   172  164  173 1   
   173  165  166 1   
   174  165  167 1   
   175  174  175 1   
   176  174  179 1   
   177  175  176 1   
   178  175  177 1   
   179  175  178 1   
   180  181  182 1   
   181  181  183 1   
   182  184  185 1   
   183  184  186 1   
@<TRIPOS>SUBSTRUCTURE
     1 MOL         1 TEMP              0 ****  ****    0 ROOT
