@<TRIPOS>MOLECULE
MOL
  183   181     1     0     0
SMALL
resp


@<TRIPOS>ATOM
      1 C1         -1.3160    2.1580    6.1640 c3        1 MOL     -0.315540
      2 C2         -1.6120    2.3660    4.7100 c         1 MOL      0.787148
      3 O1         -0.9010    3.0450    4.0080 o         1 MOL     -0.601554
      4 H1         -0.2800    1.8390    6.2820 hc        1 MOL      0.065111
      5 H2         -1.4720    3.0910    6.7050 hc        1 MOL      0.065111
      6 H3         -1.9790    1.3910    6.5650 hc        1 MOL      0.065111
      7 N1         -2.6520    1.6710    4.2100 n         1 MOL     -0.675813
      8 C3         -3.0300    1.6340    2.8220 c3        1 MOL      0.264886
      9 C4         -3.6040    2.9430    2.3200 c         1 MOL      0.470449
     10 O2         -4.6440    3.3790    2.8210 o         1 MOL     -0.592164
     11 C5         -4.0600    0.5560    2.7450 c3        1 MOL     -0.245294
     12 C6         -4.5640    0.2980    1.3280 c         1 MOL      0.643078
     13 O3         -5.5550   -0.4870    1.1570 o         1 MOL     -0.649868
     14 O4         -3.8590    0.7070    0.3660 o         1 MOL     -0.649868
     15 H4         -3.1090    1.0750    4.8770 hn        1 MOL      0.327824
     16 H5         -2.2070    1.2490    2.2270 h1        1 MOL      0.039712
     17 H6         -4.8390    0.9260    3.4180 hc        1 MOL      0.044715
     18 H7         -3.6820   -0.3750    3.1750 hc        1 MOL      0.044715
     19 N2         -3.0560    3.5740    1.2870 n         1 MOL     -0.133449
     20 C7         -3.4650    4.8780    0.7830 c3        1 MOL     -0.115064
     21 C8         -4.4060    4.7420   -0.4280 c         1 MOL      0.193056
     22 O5         -4.9720    5.7850   -0.9100 o         1 MOL     -0.550561
     23 C9         -2.2540    5.7760    0.4080 c3        1 MOL      0.298056
     24 C10        -1.2080    5.3290   -0.6120 c3        1 MOL     -0.015402
     25 C11        -1.5810    6.2390    1.6870 c3        1 MOL     -0.341277
     26 C12        -0.2490    6.3590   -1.0450 c3        1 MOL     -0.265172
     27 H8         -2.1870    3.2240    0.9050 hn        1 MOL      0.086905
     28 H9         -4.1080    5.4240    1.4750 h1        1 MOL      0.110894
     29 H10        -2.7750    6.6610    0.0190 hc        1 MOL     -0.028356
     30 H11        -1.6430    4.9340   -1.5400 hc        1 MOL      0.096853
     31 H12        -0.6930    4.4710   -0.1690 hc        1 MOL      0.096853
     32 H13        -2.3190    6.5230    2.4410 hc        1 MOL      0.062673
     33 H14        -0.8480    5.5890    2.1750 hc        1 MOL      0.062673
     34 H15        -1.0760    7.1620    1.4250 hc        1 MOL      0.062673
     35 H16         0.4120    5.9340   -1.7940 hc        1 MOL      0.049683
     36 H17        -0.8030    7.2430   -1.3710 hc        1 MOL      0.049683
     37 H18         0.2320    6.7060   -0.1220 hc        1 MOL      0.049683
     38 N3         -4.5250    3.5520   -0.9660 n         1 MOL      0.067216
     39 C13        -5.3520    3.0910   -2.1060 c3        1 MOL     -0.204328
     40 C14        -6.7760    2.5870   -1.7680 c         1 MOL      0.388640
     41 O6         -7.5530    2.3740   -2.7440 o         1 MOL     -0.484479
     42 C15        -4.5780    2.1000   -3.0350 c3        1 MOL     -0.115880
     43 C16        -3.1350    2.4560   -3.3200 c         1 MOL      0.552678
     44 O7         -2.7870    3.4190   -4.0560 o         1 MOL     -0.657948
     45 O8         -2.2720    1.7210   -2.7880 o         1 MOL     -0.657948
     46 H19        -3.8930    2.8550   -0.6000 hn        1 MOL      0.218900
     47 H20        -5.5340    3.9230   -2.7790 h1        1 MOL      0.107576
     48 H21        -5.1910    1.8760   -3.9100 hc        1 MOL      0.062474
     49 H22        -4.6080    1.2140   -2.4140 hc        1 MOL      0.062474
     50 N4         -7.0040    2.1890   -0.4680 n         1 MOL     -0.171160
     51 C17        -8.1720    1.5110   -0.0960 c3        1 MOL     -0.261320
     52 C18        -8.3990    0.0670   -0.7780 c         1 MOL      0.410366
     53 O9         -9.5080   -0.3060   -1.1980 o         1 MOL     -0.559812
     54 H23        -6.3800    2.6080    0.2110 hn        1 MOL      0.231607
     55 H24        -9.0460    2.0680   -0.4300 h1        1 MOL      0.105613
     56 H25        -8.1440    1.4060    0.9880 h1        1 MOL      0.105613
     57 N5         -7.2690   -0.6230   -1.0450 n         1 MOL     -0.064988
     58 C19        -7.3350   -1.8910   -1.8410 c3        1 MOL     -0.050950
     59 C20        -7.3100   -3.1690   -0.8990 c         1 MOL      0.416699
     60 O10        -7.5540   -4.2870   -1.3510 o         1 MOL     -0.539240
     61 C21        -6.1480   -1.8810   -2.8350 c3        1 MOL     -0.109123
     62 C22        -4.6710   -1.6790   -2.3470 c         1 MOL      0.797760
     63 O11        -3.8040   -1.4430   -3.2520 o         1 MOL     -0.790986
     64 O12        -4.3500   -1.8280   -1.1760 o         1 MOL     -0.790986
     65 H26        -6.4350   -0.4540   -0.4990 hn        1 MOL      0.155107
     66 H27        -8.3140   -1.9080   -2.2970 h1        1 MOL      0.099677
     67 H28        -6.2840   -1.0640   -3.5400 hc        1 MOL      0.021880
     68 H29        -6.2260   -2.8280   -3.3640 hc        1 MOL      0.021880
     69 N6         -7.0700   -2.9640    0.4030 n         1 MOL     -0.287037
     70 C23        -6.8930   -4.0100    1.3930 c3        1 MOL     -0.032340
     71 C24        -5.5050   -4.5700    1.6180 c         1 MOL      0.467466
     72 O13        -5.3810   -5.6810    2.2530 o         1 MOL     -0.612503
     73 H30        -6.9060   -1.9980    0.6300 hn        1 MOL      0.201152
     74 H31        -7.4570   -4.8650    1.0120 h1        1 MOL      0.059889
     75 H32        -7.3270   -3.7240    2.3470 h1        1 MOL      0.059889
     76 N7         -4.4880   -3.9100    1.1030 n         1 MOL     -0.177389
     77 C25        -3.1520   -4.4310    1.0570 c3        1 MOL     -0.088100
     78 C26        -2.1200   -3.2970    1.3300 c         1 MOL      0.531684
     79 O14        -2.4090   -2.0910    1.1670 o         1 MOL     -0.550670
     80 C27        -2.8890   -5.2710   -0.1810 c3        1 MOL      0.272041
     81 C28        -2.9620   -4.8310   -1.6690 c3        1 MOL     -0.309829
     82 C29        -1.7350   -3.9980   -2.1000 c         1 MOL      0.656938
     83 N8         -1.0980   -4.3230   -3.1580 n         1 MOL     -0.729128
     84 O15        -1.3640   -2.9980   -1.5420 o         1 MOL     -0.552844
     85 H33        -4.6950   -3.0160    0.6880 hn        1 MOL      0.264459
     86 H34        -2.9110   -5.0010    1.9550 h1        1 MOL      0.047655
     87 H35        -3.4480   -6.1970   -0.0350 hc        1 MOL     -0.052050
     88 H36        -1.9010   -5.7310   -0.1840 hc        1 MOL     -0.052050
     89 H37        -3.9000   -4.3890   -2.0100 hc        1 MOL      0.092388
     90 H38        -2.9640   -5.8050   -2.1440 hc        1 MOL      0.092388
     91 H39        -1.2880   -5.1520   -3.7120 hn        1 MOL      0.345969
     92 H40        -0.3600   -3.7080   -3.4460 hn        1 MOL      0.345969
     93 N9         -1.0080   -3.7350    1.8000 n         1 MOL     -0.385228
     94 C30         0.1210   -2.8120    2.0860 c3        1 MOL     -0.111782
     95 C31         1.3590   -3.1840    1.2740 c         1 MOL      0.400100
     96 O16         1.9250   -4.3340    1.3950 o         1 MOL     -0.588039
     97 C32         0.4590   -2.5940    3.5720 c3        1 MOL      0.367959
     98 C33         1.6140   -1.5680    3.8110 c3        1 MOL     -0.296486
     99 C34        -0.7970   -2.2080    4.3310 c3        1 MOL     -0.296486
    100 H41        -0.9070   -4.7360    1.8420 hn        1 MOL      0.275882
    101 H42        -0.1530   -1.8510    1.6650 h1        1 MOL      0.131546
    102 H43         0.8810   -3.5180    3.9810 hc        1 MOL     -0.056380
    103 H44         1.2570   -0.5470    3.6750 hc        1 MOL      0.059113
    104 H45         1.8710   -1.6680    4.8610 hc        1 MOL      0.059113
    105 H46         2.4470   -1.7950    3.1510 hc        1 MOL      0.059113
    106 H47        -1.3770   -1.4520    3.7970 hc        1 MOL      0.059113
    107 H48        -1.3880   -3.0810    4.5710 hc        1 MOL      0.059113
    108 H49        -0.4700   -1.8720    5.3210 hc        1 MOL      0.059113
    109 N10         1.8800   -2.3290    0.4090 n         1 MOL     -0.157715
    110 C35         3.0680   -2.5930   -0.4850 c3        1 MOL      0.117209
    111 C36         4.2640   -1.9100    0.1280 c         1 MOL      0.333100
    112 O17         4.1110   -1.0350    0.9360 o         1 MOL     -0.201060
    113 C37         2.6080   -1.9480   -1.8130 c3        1 MOL     -0.524146
    114 C38         3.6810   -2.0580   -2.8060 c         1 MOL      0.655925
    115 N11         4.1340   -0.8860   -3.3290 n         1 MOL     -0.691018
    116 O18         4.3270   -3.0940   -3.0670 o         1 MOL     -0.574986
    117 H50         1.3900   -1.4570    0.2640 hn        1 MOL      0.175295
    118 H51         3.2860   -3.6580   -0.6110 h1        1 MOL      0.079330
    119 H52         2.3350   -0.8980   -1.6850 hc        1 MOL      0.172337
    120 H53         1.7500   -2.4180   -2.2810 hc        1 MOL      0.172337
    121 H54         3.5440   -0.0720   -3.2330 hn        1 MOL      0.346067
    122 H55         4.9750   -0.8810   -3.9010 hn        1 MOL      0.346067
    123 N12         5.4410   -2.3870   -0.2710 n         1 MOL     -0.479794
    124 C39         6.7020   -1.8030    0.2190 c3        1 MOL      0.045861
    125 C40         6.7650   -0.2820    0.2310 c         1 MOL      0.791110
    126 O19         7.2070    0.3550    1.1530 o         1 MOL     -0.563164
    127 C41         7.8820   -2.4760   -0.6100 c3        1 MOL     -0.109042
    128 C42         9.1970   -1.8580   -0.1980 ca        1 MOL      0.053223
    129 C43         9.6740   -2.0410    1.1070 ca        1 MOL     -0.219739
    130 C44         9.9460   -1.1110   -1.1650 ca        1 MOL     -0.219739
    131 C45        10.9460   -1.5630    1.4590 ca        1 MOL     -0.169186
    132 C46        11.2040   -0.5720   -0.6870 ca        1 MOL     -0.169186
    133 C47        11.7490   -0.8840    0.5770 ca        1 MOL      0.243131
    134 O20        12.9180   -0.1850    0.8880 oh        1 MOL     -0.514963
    135 H56         5.4700   -3.0570   -1.0250 hn        1 MOL      0.315863
    136 H57         6.9280   -2.0680    1.2570 h1        1 MOL      0.031134
    137 H58         7.6660   -2.2390   -1.6560 hc        1 MOL      0.064918
    138 H59         7.8880   -3.5590   -0.6490 hc        1 MOL      0.064918
    139 H60         9.1290   -2.5870    1.8630 ha        1 MOL      0.148889
    140 H61         9.5620   -0.8720   -2.1510 ha        1 MOL      0.148889
    141 H62        11.2140   -1.6030    2.5040 ha        1 MOL      0.130262
    142 H63        11.6940    0.0500   -1.4300 ha        1 MOL      0.130262
    143 H64        13.0280    0.4520    0.1740 ho        1 MOL      0.369287
    144 N13         6.2620    0.3210   -0.8910 n         1 MOL     -0.502293
    145 C48         6.2250    1.7990   -1.0260 c3        1 MOL     -0.126087
    146 C49         5.2460    2.5200   -0.0760 c         1 MOL      0.450171
    147 O21         5.3790    3.7000    0.1210 o         1 MOL     -0.526827
    148 C50         6.2740    2.2270   -2.4160 c3        1 MOL      0.091269
    149 C51         7.6160    1.7160   -3.0040 c3        1 MOL     -0.204204
    150 C52         7.7490    1.9570   -4.5060 c         1 MOL      0.672613
    151 O22         7.9130    3.1950   -4.8480 o         1 MOL     -0.732298
    152 O23         7.5830    0.9980   -5.2630 o         1 MOL     -0.732298
    153 H65         5.8650   -0.2480   -1.6300 hn        1 MOL      0.265607
    154 H66         7.2170    2.1460   -0.7180 h1        1 MOL      0.120992
    155 H67         6.1390    3.3090   -2.5350 hc        1 MOL      0.022683
    156 H68         5.4160    1.8330   -2.9550 hc        1 MOL      0.022683
    157 H69         7.5880    0.6310   -2.9800 hc        1 MOL      0.031089
    158 H70         8.4890    2.0680   -2.4550 hc        1 MOL      0.031089
    159 N14         4.4090    1.7740    0.6560 n         1 MOL     -0.258417
    160 C53         3.5150    2.1430    1.7990 c3        1 MOL     -0.016144
    161 C54         4.2150    1.7810    3.1940 c         1 MOL      0.504232
    162 O24         3.9890    2.5040    4.1460 o         1 MOL     -0.556085
    163 C55         2.1250    1.4870    1.6330 c3        1 MOL     -0.094244
    164 C56         1.2600    1.9960    0.4160 c3        1 MOL     -0.030006
    165 C57        -0.0390    1.2430    0.1620 c         1 MOL      0.789742
    166 O25        -1.0650    1.9110   -0.1320 o         1 MOL     -0.807284
    167 O26         0.0670    0.0230    0.0330 o         1 MOL     -0.807284
    168 H71         4.4520    0.7710    0.5370 hn        1 MOL      0.092190
    169 H72         3.4310    3.2320    1.8380 h1        1 MOL      0.094113
    170 H73         1.6270    1.6500    2.5950 hc        1 MOL      0.064620
    171 H74         2.2380    0.4040    1.4930 hc        1 MOL      0.064620
    172 H75         1.7600    1.9080   -0.5380 hc        1 MOL      0.009966
    173 H76         1.0890    3.0680    0.4880 hc        1 MOL      0.009966
    174 N15         4.9690    0.6960    3.2140 n         1 MOL     -0.181630
    175 C58         5.6590    0.2030    4.3920 c3        1 MOL     -0.147448
    176 H77         6.6550   -0.1400    4.1120 h1        1 MOL      0.062885
    177 H78         5.7450    1.0050    5.1250 h1        1 MOL      0.062885
    178 H79         5.0970   -0.6250    4.8220 h1        1 MOL      0.062885
    179 H80         4.8540   -0.0570    2.5520 hn        1 MOL      0.129328
    180 Ca1        -2.1920   -0.3860   -1.2740 Ca        1 MOL      1.745750
    181 O27        -0.2770   -0.2750   -3.2010 oh        1 MOL     -0.854561
    182 H81        -0.1260    0.6670   -3.2310 ho        1 MOL      0.409585
    183 H82         0.2360   -0.6270   -3.9230 ho        1 MOL      0.409585
@<TRIPOS>BOND
     1    1    2 1   
     2    1    4 1   
     3    1    5 1   
     4    1    6 1   
     5    2    3 2   
     6    2    7 1   
     7    7    8 1   
     8    7   15 1   
     9    8    9 1   
    10    8   11 1   
    11    8   16 1   
    12    9   10 2   
    13    9   19 1   
    14   11   12 1   
    15   11   17 1   
    16   11   18 1   
    17   12   13 1   
    18   12   14 1   
    19   19   20 1   
    20   19   27 1   
    21   20   21 1   
    22   20   23 1   
    23   20   28 1   
    24   21   22 2   
    25   21   38 1   
    26   23   24 1   
    27   23   25 1   
    28   23   29 1   
    29   24   26 1   
    30   24   30 1   
    31   24   31 1   
    32   25   32 1   
    33   25   33 1   
    34   25   34 1   
    35   26   35 1   
    36   26   36 1   
    37   26   37 1   
    38   38   39 1   
    39   38   46 1   
    40   39   40 1   
    41   39   42 1   
    42   39   47 1   
    43   40   41 2   
    44   40   50 1   
    45   42   43 1   
    46   42   48 1   
    47   42   49 1   
    48   43   44 1   
    49   43   45 1   
    50   50   51 1   
    51   50   54 1   
    52   51   52 1   
    53   51   55 1   
    54   51   56 1   
    55   52   53 2   
    56   52   57 1   
    57   57   58 1   
    58   57   65 1   
    59   58   59 1   
    60   58   61 1   
    61   58   66 1   
    62   59   60 2   
    63   59   69 1   
    64   61   62 1   
    65   61   67 1   
    66   61   68 1   
    67   62   63 1   
    68   62   64 1   
    69   69   70 1   
    70   69   73 1   
    71   70   71 1   
    72   70   74 1   
    73   70   75 1   
    74   71   72 2   
    75   71   76 1   
    76   76   77 1   
    77   76   85 1   
    78   77   78 1   
    79   77   80 1   
    80   77   86 1   
    81   78   79 2   
    82   78   93 1   
    83   80   81 1   
    84   80   87 1   
    85   80   88 1   
    86   81   82 1   
    87   81   89 1   
    88   81   90 1   
    89   82   83 1   
    90   82   84 2   
    91   83   91 1   
    92   83   92 1   
    93   93   94 1   
    94   93  100 1   
    95   94   95 1   
    96   94   97 1   
    97   94  101 1   
    98   95   96 2   
    99   95  109 1   
   100   97   98 1   
   101   97   99 1   
   102   97  102 1   
   103   98  103 1   
   104   98  104 1   
   105   98  105 1   
   106   99  106 1   
   107   99  107 1   
   108   99  108 1   
   109  109  110 1   
   110  109  117 1   
   111  110  111 1   
   112  110  113 1   
   113  110  118 1   
   114  111  112 2   
   115  111  123 1   
   116  113  114 1   
   117  113  119 1   
   118  113  120 1   
   119  114  115 1   
   120  114  116 2   
   121  115  121 1   
   122  115  122 1   
   123  123  124 1   
   124  123  135 1   
   125  124  125 1   
   126  124  127 1   
   127  124  136 1   
   128  125  126 2   
   129  125  144 1   
   130  127  128 1   
   131  127  137 1   
   132  127  138 1   
   133  128  129 ar  
   134  128  130 ar  
   135  129  131 ar  
   136  129  139 1   
   137  130  132 ar  
   138  130  140 1   
   139  131  133 ar  
   140  131  141 1   
   141  132  133 ar  
   142  132  142 1   
   143  133  134 1   
   144  134  143 1   
   145  144  145 1   
   146  144  153 1   
   147  145  146 1   
   148  145  148 1   
   149  145  154 1   
   150  146  147 2   
   151  146  159 1   
   152  148  149 1   
   153  148  155 1   
   154  148  156 1   
   155  149  150 1   
   156  149  157 1   
   157  149  158 1   
   158  150  151 1   
   159  150  152 1   
   160  159  160 1   
   161  159  168 1   
   162  160  161 1   
   163  160  163 1   
   164  160  169 1   
   165  161  162 2   
   166  161  174 1   
   167  163  164 1   
   168  163  170 1   
   169  163  171 1   
   170  164  165 1   
   171  164  172 1   
   172  164  173 1   
   173  165  166 1   
   174  165  167 1   
   175  174  175 1   
   176  174  179 1   
   177  175  176 1   
   178  175  177 1   
   179  175  178 1   
   180  181  182 1   
   181  181  183 1   
@<TRIPOS>SUBSTRUCTURE
     1 MOL         1 TEMP              0 ****  ****    0 ROOT
