@<TRIPOS>MOLECULE
MOL
  189   185     1     0     0
SMALL
resp


@<TRIPOS>ATOM
      1 C1         -0.0500    2.3180    6.3940 c3        1 MOL     -0.247934
      2 C2         -0.4000    2.1490    4.8600 c         1 MOL      0.671642
      3 O1          0.3380    2.6570    4.0330 o         1 MOL     -0.598168
      4 H1          0.6010    3.1830    6.5260 hc        1 MOL      0.066270
      5 H2         -0.9680    2.4660    6.9620 hc        1 MOL      0.066270
      6 H3          0.4590    1.4230    6.7520 hc        1 MOL      0.066270
      7 N1         -1.5630    1.5300    4.4910 n         1 MOL     -0.504117
      8 C3         -2.1340    1.4990    3.1320 c3        1 MOL     -0.058024
      9 C4         -2.4350    2.9040    2.6030 c         1 MOL      0.702321
     10 O2         -3.1330    3.5820    3.3920 o         1 MOL     -0.588719
     11 C5         -3.4170    0.6010    3.0860 c3        1 MOL     -0.249209
     12 C6         -4.1010    0.5240    1.7370 c         1 MOL      0.782216
     13 O3         -3.3790    0.7190    0.6670 o         1 MOL     -0.683687
     14 O4         -5.3130    0.1640    1.7170 o         1 MOL     -0.683687
     15 H4         -2.0000    0.9500    5.1930 hn        1 MOL      0.310385
     16 H5         -1.4060    1.1480    2.3960 h1        1 MOL     -0.012678
     17 H6         -4.1060    0.8990    3.8860 hc        1 MOL      0.082459
     18 H7         -3.0480   -0.3790    3.3910 hc        1 MOL      0.082459
     19 N2         -2.0220    3.3790    1.4220 n         1 MOL     -0.343289
     20 C7         -2.2400    4.7900    0.9470 c3        1 MOL     -0.048332
     21 C8         -3.5560    4.8820    0.1740 c         1 MOL      0.445242
     22 O5         -4.0590    5.9930    0.0300 o         1 MOL     -0.555107
     23 C9         -1.0040    5.1280    0.0190 c3        1 MOL      0.028073
     24 C10         0.2840    5.2830    0.8130 c3        1 MOL      0.126342
     25 C11         1.4940    5.3700   -0.0820 c3        1 MOL      0.017007
     26 C12         2.5640    6.0610    0.6640 c3        1 MOL     -0.010431
     27 N3          3.8280    5.8190   -0.0890 n4        1 MOL     -0.109346
     28 H8         -1.3820    2.8150    0.8740 hn        1 MOL      0.178357
     29 H9         -2.2700    5.3900    1.8660 h1        1 MOL      0.081792
     30 H10        -1.2100    6.1210   -0.3940 hc        1 MOL     -0.002151
     31 H11        -0.8780    4.3760   -0.7560 hc        1 MOL     -0.002151
     32 H12         0.3790    4.4960    1.5600 hc        1 MOL      0.005709
     33 H13         0.1720    6.1960    1.3900 hc        1 MOL      0.005709
     34 H14         1.3050    6.0160   -0.9380 hc        1 MOL     -0.012035
     35 H15         1.7020    4.3510   -0.4300 hc        1 MOL     -0.012035
     36 H16         2.6430    5.7300    1.6960 hx        1 MOL      0.075343
     37 H17         2.4560    7.1450    0.6440 hx        1 MOL      0.075343
     38 H18         4.5860    6.4430    0.1590 hn        1 MOL      0.244805
     39 H19         4.2010    4.8800   -0.0530 hn        1 MOL      0.244805
     40 H20         3.7020    5.9120   -1.0840 hn        1 MOL      0.244805
     41 N4         -3.9990    3.8430   -0.4700 n         1 MOL     -0.283497
     42 C13        -4.9090    3.8440   -1.5900 c3        1 MOL      0.163659
     43 C14        -6.1450    3.0060   -1.4070 c         1 MOL      0.390013
     44 O6         -7.0610    2.9870   -2.2700 o         1 MOL     -0.504353
     45 C15        -4.1140    3.7040   -2.8550 c3        1 MOL     -0.020855
     46 C16        -3.0080    2.6190   -2.8950 c         1 MOL      0.682490
     47 O7         -2.6610    1.9070   -1.9220 o         1 MOL     -0.717549
     48 O8         -2.5660    2.3200   -4.0280 o         1 MOL     -0.717549
     49 H21        -3.5380    2.9620   -0.3310 hn        1 MOL      0.155613
     50 H22        -5.3150    4.8570   -1.5850 h1        1 MOL      0.032593
     51 H23        -3.6420    4.6710   -3.0180 hc        1 MOL      0.004332
     52 H24        -4.8850    3.5630   -3.6130 hc        1 MOL      0.004332
     53 N5         -6.1960    2.3730   -0.2660 n         1 MOL     -0.228172
     54 C17        -7.4130    1.6700    0.0650 c3        1 MOL     -0.148746
     55 C18        -7.6040    0.4250   -0.7680 c         1 MOL      0.443892
     56 O9         -8.7140    0.2730   -1.3570 o         1 MOL     -0.537356
     57 H25        -5.4010    2.3140    0.3520 hn        1 MOL      0.209906
     58 H26        -8.2900    2.3140   -0.0170 h1        1 MOL      0.101533
     59 H27        -7.4030    1.2610    1.0720 h1        1 MOL      0.101533
     60 N6         -6.5560   -0.4360   -0.9430 n         1 MOL     -0.103918
     61 C19        -6.8220   -1.8460   -1.4590 c3        1 MOL     -0.159562
     62 C20        -6.6360   -2.9610   -0.3810 c         1 MOL      0.462700
     63 O10        -6.9160   -4.0970   -0.5910 o         1 MOL     -0.523481
     64 C21        -5.8290   -2.1520   -2.6290 c3        1 MOL      0.052897
     65 C22        -4.4270   -1.6220   -2.3930 c         1 MOL      0.423896
     66 O11        -3.9000   -0.7950   -3.1100 o         1 MOL     -0.544204
     67 O12        -3.8280   -2.0890   -1.3450 o         1 MOL     -0.544204
     68 H28        -5.6550   -0.2550   -0.5180 hn        1 MOL      0.088744
     69 H29        -7.8250   -1.9800   -1.8780 h1        1 MOL      0.125429
     70 H30        -6.1570   -1.7830   -3.6110 hc        1 MOL      0.002571
     71 H31        -5.8150   -3.2360   -2.7520 hc        1 MOL      0.002571
     72 N7         -6.0810   -2.5470    0.7060 n         1 MOL     -0.296223
     73 C23        -5.6660   -3.4830    1.7850 c3        1 MOL     -0.018985
     74 C24        -4.5470   -4.3870    1.3420 c         1 MOL      0.428595
     75 O13        -4.6190   -5.5550    1.8010 o         1 MOL     -0.575405
     76 H32        -5.8310   -1.5740    0.8530 hn        1 MOL      0.257541
     77 H33        -6.5580   -4.0050    2.1140 h1        1 MOL      0.068372
     78 H34        -5.3490   -2.8540    2.6260 h1        1 MOL      0.068372
     79 N8         -3.6040   -3.9480    0.5990 n         1 MOL     -0.076667
     80 C25        -2.3280   -4.7050    0.3740 c3        1 MOL     -0.266018
     81 C26        -1.1580   -3.7110    0.5540 c         1 MOL      0.736551
     82 O14        -1.1860   -2.6160    0.0380 o         1 MOL     -0.722528
     83 C27        -2.2280   -5.4440   -0.8520 c3        1 MOL      0.506766
     84 C28        -2.9620   -6.8100   -0.9730 c3        1 MOL     -0.419780
     85 O15        -2.6520   -4.6820   -1.9480 oh        1 MOL     -0.632042
     86 H35        -3.6450   -3.0470    0.1420 hn        1 MOL      0.049184
     87 H36        -2.2580   -5.4920    1.1200 h1        1 MOL      0.088175
     88 H37        -1.1880   -5.7550   -0.9850 h1        1 MOL     -0.014668
     89 H38        -3.5220   -4.3800   -1.6720 ho        1 MOL      0.425490
     90 H39        -3.2910   -7.0140   -1.9930 hc        1 MOL      0.105716
     91 H40        -2.3850   -7.6180   -0.5300 hc        1 MOL      0.105716
     92 H41        -3.8490   -6.8120   -0.3350 hc        1 MOL      0.105716
     93 N9         -0.1800   -4.1470    1.3300 n         1 MOL     -0.617639
     94 C29         0.9940   -3.3060    1.6920 c3        1 MOL      0.210851
     95 C30         2.1260   -3.6080    0.6960 c         1 MOL      0.385104
     96 O16         2.6660   -4.7120    0.7330 o         1 MOL     -0.535176
     97 C31         1.4140   -3.5280    3.1710 c3        1 MOL      0.043590
     98 C32         0.2980   -2.9120    4.0620 c3        1 MOL      0.010110
     99 C33         2.8690   -2.9190    3.3440 c3        1 MOL     -0.257854
    100 C34         0.2300   -1.3700    4.2560 c3        1 MOL     -0.041145
    101 H42        -0.2750   -5.0880    1.6780 hn        1 MOL      0.326823
    102 H43         0.7860   -2.2410    1.5830 h1        1 MOL      0.066358
    103 H44         1.4630   -4.5910    3.4070 hc        1 MOL      0.032760
    104 H45         0.3980   -3.2930    5.0830 hc        1 MOL     -0.003921
    105 H46        -0.6730   -3.3510    3.8420 hc        1 MOL     -0.003921
    106 H47         3.6040   -3.4840    2.7800 hc        1 MOL      0.062587
    107 H48         2.8340   -1.8670    3.0240 hc        1 MOL      0.062587
    108 H49         3.0740   -2.9230    4.4120 hc        1 MOL      0.062587
    109 H50         0.0480   -0.9700    3.2550 hc        1 MOL      0.018408
    110 H51        -0.5020   -1.0310    4.9880 hc        1 MOL      0.018408
    111 H52         1.2090   -1.0580    4.6100 hc        1 MOL      0.018408
    112 N10         2.4460   -2.6370   -0.1120 n         1 MOL     -0.099001
    113 C35         3.5800   -2.6040   -1.0520 c3        1 MOL     -0.011939
    114 C36         4.9890   -2.2810   -0.3990 c         1 MOL      0.386974
    115 O17         5.0950   -1.9000    0.7820 o         1 MOL     -0.347238
    116 C37         3.3940   -1.5520   -2.2120 c3        1 MOL      0.196022
    117 C38         2.3090   -1.9120   -3.1980 c3        1 MOL     -0.506618
    118 O18         3.1440   -0.2830   -1.6780 oh        1 MOL     -0.401997
    119 H53         1.8320   -1.8460   -0.2000 hn        1 MOL      0.143328
    120 H54         3.7080   -3.5990   -1.4740 h1        1 MOL      0.074271
    121 H55         4.3180   -1.3770   -2.7740 h1        1 MOL     -0.019208
    122 H56         2.3610   -0.4190   -1.1300 ho        1 MOL      0.231735
    123 H57         2.6290   -2.9280   -3.4450 hc        1 MOL      0.140133
    124 H58         1.3790   -2.1750   -2.6910 hc        1 MOL      0.140133
    125 H59         2.1870   -1.2790   -4.0760 hc        1 MOL      0.140133
    126 N11         6.0890   -2.4670   -1.1160 n         1 MOL     -0.395239
    127 C39         7.4390   -2.0910   -0.6510 c3        1 MOL      0.041440
    128 C40         7.4760   -0.6250   -0.3480 c         1 MOL      0.336055
    129 O19         8.0950   -0.1740    0.6120 o         1 MOL     -0.487845
    130 C41         8.5130   -2.2710   -1.7030 c3        1 MOL      0.134513
    131 C42         8.8280   -3.7560   -1.7640 c3        1 MOL     -0.272122
    132 O20         7.9700   -2.0430   -2.9960 oh        1 MOL     -0.637986
    133 H60         5.9750   -2.6680   -2.1020 hn        1 MOL      0.307727
    134 H61         7.6640   -2.5590    0.3090 h1        1 MOL      0.145536
    135 H62         9.4150   -1.7060   -1.4850 h1        1 MOL      0.118056
    136 H63         8.6090   -2.3230   -3.6590 ho        1 MOL      0.429412
    137 H64         7.9550   -4.3230   -2.1030 hc        1 MOL      0.084955
    138 H65         9.6810   -3.9780   -2.4100 hc        1 MOL      0.084955
    139 H66         9.2070   -4.0390   -0.7810 hc        1 MOL      0.084955
    140 N12         6.9100    0.2370   -1.1760 n         1 MOL     -0.186239
    141 C43         6.6900    1.6870   -0.9440 c3        1 MOL     -0.056125
    142 C44         5.5870    2.1130    0.0940 c         1 MOL      0.519333
    143 O21         5.2830    3.3280    0.1870 o         1 MOL     -0.645805
    144 C45         6.3420    2.2470   -2.3340 c3        1 MOL     -0.185309
    145 C46         4.9110    1.9530   -2.8420 c3        1 MOL     -0.022054
    146 C47         4.5820    2.9090   -4.0430 c3        1 MOL     -0.124544
    147 C48         3.4660    2.3100   -4.7810 c3        1 MOL      0.258469
    148 N13         3.9890    1.3270   -5.7810 n4        1 MOL     -0.548025
    149 H67         6.5040   -0.1270   -2.0320 hn        1 MOL      0.169999
    150 H68         7.6290    2.1310   -0.6120 h1        1 MOL      0.141792
    151 H69         6.9850    1.7710   -3.0660 hc        1 MOL      0.065662
    152 H70         6.5480    3.3160   -2.2740 hc        1 MOL      0.065662
    153 H71         4.1680    2.1470   -2.0750 hc        1 MOL      0.050740
    154 H72         4.8280    0.9110   -3.1310 hc        1 MOL      0.050740
    155 H73         5.4390    3.1630   -4.6680 hc        1 MOL      0.054208
    156 H74         4.1920    3.8470   -3.6400 hc        1 MOL      0.054208
    157 H75         2.8490    3.1100   -5.1890 hx        1 MOL      0.034234
    158 H76         2.8300    1.7400   -4.1010 hx        1 MOL      0.034234
    159 H77         4.2490    0.4570   -5.3240 hn        1 MOL      0.367454
    160 H78         3.2770    1.1220   -6.4640 hn        1 MOL      0.367454
    161 H79         4.7850    1.7470   -6.2330 hn        1 MOL      0.367454
    162 N14         5.0480    1.1960    0.8270 n         1 MOL      0.084393
    163 C49         4.2730    1.4250    2.0120 c3        1 MOL     -0.196773
    164 C50         4.8360    0.7400    3.2600 c         1 MOL      0.484456
    165 O22         4.6770    1.1930    4.3950 o         1 MOL     -0.525262
    166 C51         2.8960    0.8160    1.7360 c3        1 MOL      0.053764
    167 C52         2.1460    1.6610    0.6610 c3        1 MOL      0.192491
    168 C53         0.9330    0.8800    0.1180 c         1 MOL      0.534038
    169 O23         0.9690   -0.3360   -0.2510 o         1 MOL     -0.590061
    170 O24        -0.1860    1.4840    0.1380 o         1 MOL     -0.590061
    171 H80         5.5190    0.3080    0.6940 hn        1 MOL     -0.145347
    172 H81         4.2770    2.4500    2.3710 h1        1 MOL      0.133734
    173 H82         2.2530    0.9020    2.6100 hc        1 MOL      0.019542
    174 H83         3.0740   -0.1790    1.3520 hc        1 MOL      0.019542
    175 H84         2.8150    1.7010   -0.1940 hc        1 MOL     -0.069191
    176 H85         1.8470    2.6780    0.8880 hc        1 MOL     -0.069191
    177 N15         5.6770   -0.2780    3.1100 n         1 MOL     -0.178690
    178 C54         6.3570   -0.9700    4.2590 c3        1 MOL     -0.379131
    179 H86         6.9870   -0.2570    4.7910 h1        1 MOL      0.150317
    180 H87         5.6050   -1.3690    4.9400 h1        1 MOL      0.150317
    181 H88         6.9730   -1.7850    3.8800 h1        1 MOL      0.150317
    182 H89         5.7140   -0.6510    2.1760 hn        1 MOL      0.218420
    183 Ca1        -1.7140   -0.3300   -1.0870 Ca        1 MOL      1.729136
    184 O25        -0.4370    0.4470   -3.4010 oh        1 MOL     -0.866240
    185 H90        -1.0310    1.1920   -3.4490 ho        1 MOL      0.400114
    186 H91        -0.1610    0.2970   -4.3140 ho        1 MOL      0.400114
    187 O26        -1.3220   -2.4640   -2.7260 oh        1 MOL     -0.866240
    188 H92        -1.7830   -3.2050   -2.3400 ho        1 MOL      0.400114
    189 H93        -1.1610   -2.7310   -3.6300 ho        1 MOL      0.400114
@<TRIPOS>BOND
     1    1    2 1   
     2    1    4 1   
     3    1    5 1   
     4    1    6 1   
     5    2    3 2   
     6    2    7 1   
     7    7    8 1   
     8    7   15 1   
     9    8    9 1   
    10    8   11 1   
    11    8   16 1   
    12    9   10 2   
    13    9   19 1   
    14   11   12 1   
    15   11   17 1   
    16   11   18 1   
    17   12   13 1   
    18   12   14 1   
    19   19   20 1   
    20   19   28 1   
    21   20   21 1   
    22   20   23 1   
    23   20   29 1   
    24   21   22 2   
    25   21   41 1   
    26   23   24 1   
    27   23   30 1   
    28   23   31 1   
    29   24   25 1   
    30   24   32 1   
    31   24   33 1   
    32   25   26 1   
    33   25   34 1   
    34   25   35 1   
    35   26   27 1   
    36   26   36 1   
    37   26   37 1   
    38   27   38 1   
    39   27   39 1   
    40   27   40 1   
    41   41   42 1   
    42   41   49 1   
    43   42   43 1   
    44   42   45 1   
    45   42   50 1   
    46   43   44 2   
    47   43   53 1   
    48   45   46 1   
    49   45   51 1   
    50   45   52 1   
    51   46   47 1   
    52   46   48 1   
    53   53   54 1   
    54   53   57 1   
    55   54   55 1   
    56   54   58 1   
    57   54   59 1   
    58   55   56 2   
    59   55   60 1   
    60   60   61 1   
    61   60   68 1   
    62   61   62 1   
    63   61   64 1   
    64   61   69 1   
    65   62   63 2   
    66   62   72 1   
    67   64   65 1   
    68   64   70 1   
    69   64   71 1   
    70   65   66 1   
    71   65   67 1   
    72   72   73 1   
    73   72   76 1   
    74   73   74 1   
    75   73   77 1   
    76   73   78 1   
    77   74   75 2   
    78   74   79 1   
    79   79   80 1   
    80   79   86 1   
    81   80   81 1   
    82   80   83 1   
    83   80   87 1   
    84   81   82 2   
    85   81   93 1   
    86   83   84 1   
    87   83   85 1   
    88   83   88 1   
    89   84   90 1   
    90   84   91 1   
    91   84   92 1   
    92   85   89 1   
    93   93   94 1   
    94   93  101 1   
    95   94   95 1   
    96   94   97 1   
    97   94  102 1   
    98   95   96 2   
    99   95  112 1   
   100   97   98 1   
   101   97   99 1   
   102   97  103 1   
   103   98  100 1   
   104   98  104 1   
   105   98  105 1   
   106   99  106 1   
   107   99  107 1   
   108   99  108 1   
   109  100  109 1   
   110  100  110 1   
   111  100  111 1   
   112  112  113 1   
   113  112  119 1   
   114  113  114 1   
   115  113  116 1   
   116  113  120 1   
   117  114  115 2   
   118  114  126 1   
   119  116  117 1   
   120  116  118 1   
   121  116  121 1   
   122  117  123 1   
   123  117  124 1   
   124  117  125 1   
   125  118  122 1   
   126  126  127 1   
   127  126  133 1   
   128  127  128 1   
   129  127  130 1   
   130  127  134 1   
   131  128  129 2   
   132  128  140 1   
   133  130  131 1   
   134  130  132 1   
   135  130  135 1   
   136  131  137 1   
   137  131  138 1   
   138  131  139 1   
   139  132  136 1   
   140  140  141 1   
   141  140  149 1   
   142  141  142 1   
   143  141  144 1   
   144  141  150 1   
   145  142  143 2   
   146  142  162 1   
   147  144  145 1   
   148  144  151 1   
   149  144  152 1   
   150  145  146 1   
   151  145  153 1   
   152  145  154 1   
   153  146  147 1   
   154  146  155 1   
   155  146  156 1   
   156  147  148 1   
   157  147  157 1   
   158  147  158 1   
   159  148  159 1   
   160  148  160 1   
   161  148  161 1   
   162  162  163 1   
   163  162  171 1   
   164  163  164 1   
   165  163  166 1   
   166  163  172 1   
   167  164  165 2   
   168  164  177 1   
   169  166  167 1   
   170  166  173 1   
   171  166  174 1   
   172  167  168 1   
   173  167  175 1   
   174  167  176 1   
   175  168  169 1   
   176  168  170 1   
   177  177  178 1   
   178  177  182 1   
   179  178  179 1   
   180  178  180 1   
   181  178  181 1   
   182  184  185 1   
   183  184  186 1   
   184  187  188 1   
   185  187  189 1   
@<TRIPOS>SUBSTRUCTURE
     1 MOL         1 TEMP              0 ****  ****    0 ROOT
