@<TRIPOS>MOLECULE
MOL
  186   183     1     0     0
SMALL
resp


@<TRIPOS>ATOM
      1 C1          0.9120   -2.3260    6.2530 c3        1 MOL     -0.281636
      2 C2          1.1310   -2.0510    4.7630 c         1 MOL      0.679408
      3 O1          0.3270   -2.4920    3.8890 o         1 MOL     -0.604993
      4 H1          0.1750   -3.1210    6.3710 hc        1 MOL      0.070056
      5 H2          1.8530   -2.6330    6.7090 hc        1 MOL      0.070056
      6 H3          0.5490   -1.4210    6.7410 hc        1 MOL      0.070056
      7 N1          2.2010   -1.5340    4.2850 n         1 MOL     -0.549261
      8 C3          2.6560   -1.6070    2.8430 c3        1 MOL      0.449344
      9 C4          3.0910   -3.0420    2.4630 c         1 MOL      0.464615
     10 O2          3.7410   -3.7630    3.1990 o         1 MOL     -0.621128
     11 C5          3.8690   -0.6240    2.7380 c3        1 MOL     -0.492654
     12 C6          4.6170   -0.5300    1.4310 c         1 MOL      0.867080
     13 O3          5.6860    0.0280    1.4000 o         1 MOL     -0.659824
     14 O4          4.1230   -1.0810    0.4090 o         1 MOL     -0.659824
     15 H4          2.8390   -1.0850    4.9350 hn        1 MOL      0.277597
     16 H5          1.9070   -1.3160    2.0950 h1        1 MOL     -0.046005
     17 H6          4.6060   -0.9200    3.4810 hc        1 MOL      0.071529
     18 H7          3.5640    0.4170    2.8670 hc        1 MOL      0.071529
     19 N2          2.6880   -3.5980    1.3230 n         1 MOL     -0.181571
     20 C7          3.0290   -5.0190    0.9170 c3        1 MOL      0.014694
     21 C8          4.0670   -5.1000   -0.2560 c         1 MOL      0.432253
     22 O5          4.7930   -6.0750   -0.4600 o         1 MOL     -0.578212
     23 C9          1.6870   -5.7280    0.4610 c3        1 MOL      0.110314
     24 C10         0.5060   -5.6450    1.4770 c3        1 MOL     -0.104570
     25 C11         2.0500   -7.2770    0.2600 c3        1 MOL     -0.160306
     26 C12         0.7510   -6.2830    2.8480 c3        1 MOL      0.008557
     27 H8          2.1330   -3.0400    0.6860 hn        1 MOL      0.098625
     28 H9          3.4620   -5.5920    1.7330 h1        1 MOL      0.094908
     29 H10         1.4200   -5.3410   -0.5260 hc        1 MOL      0.021582
     30 H11        -0.4010   -6.1070    1.1030 hc        1 MOL      0.037808
     31 H12         0.1640   -4.6270    1.6800 hc        1 MOL      0.037808
     32 H13         1.1690   -7.9010    0.1160 hc        1 MOL      0.022318
     33 H14         2.7340   -7.4720   -0.5630 hc        1 MOL      0.022318
     34 H15         2.5370   -7.5710    1.1920 hc        1 MOL      0.022318
     35 H16         1.6880   -6.0160    3.3540 hc        1 MOL     -0.007128
     36 H17        -0.0340   -6.1400    3.5910 hc        1 MOL     -0.007128
     37 H18         0.8040   -7.3620    2.7160 hc        1 MOL     -0.007128
     38 N3          4.1580   -3.9920   -1.0410 n         1 MOL     -0.259545
     39 C13         4.8690   -4.0020   -2.3520 c3        1 MOL      0.234030
     40 C14         6.0460   -3.0270   -2.2960 c         1 MOL      0.241379
     41 O6          6.6890   -2.7280   -3.3180 o         1 MOL     -0.483044
     42 C15         3.9750   -3.8490   -3.5920 c3        1 MOL     -0.313622
     43 C16         3.1530   -2.6270   -3.5740 c         1 MOL      0.936907
     44 O7          3.2610   -1.7650   -2.7150 o         1 MOL     -0.777709
     45 O8          2.2870   -2.4290   -4.5230 o         1 MOL     -0.777709
     46 H19         3.6650   -3.1340   -0.8060 hn        1 MOL      0.173005
     47 H20         5.4270   -4.9330   -2.4090 h1        1 MOL      0.043181
     48 H21         3.2580   -4.6680   -3.5100 hc        1 MOL      0.057408
     49 H22         4.5760   -4.0080   -4.4930 hc        1 MOL      0.057408
     50 N4          6.4000   -2.4030   -1.1870 n         1 MOL     -0.030403
     51 C17         7.6560   -1.6890   -0.8690 c3        1 MOL     -0.251651
     52 C18         7.7530   -0.4180   -1.7230 c         1 MOL      0.419181
     53 O9          8.6470   -0.3500   -2.5520 o         1 MOL     -0.536682
     54 H23         5.8330   -2.6060   -0.3780 hn        1 MOL      0.116877
     55 H24         8.4770   -2.3460   -1.1780 h1        1 MOL      0.105950
     56 H25         7.6940   -1.4250    0.1840 h1        1 MOL      0.105950
     57 N5          6.8400    0.5390   -1.5430 n         1 MOL     -0.033834
     58 C19         6.9450    1.8680   -2.1090 c3        1 MOL      0.252802
     59 C20         6.9320    2.9290   -0.9780 c         1 MOL      0.305987
     60 O10         7.0010    4.1470   -1.3380 o         1 MOL     -0.536742
     61 C21         5.8700    2.1450   -3.1720 c3        1 MOL     -0.379496
     62 C22         4.4750    1.8050   -2.6250 c         1 MOL      0.762519
     63 O11         3.7880    0.9590   -3.2810 o         1 MOL     -0.711989
     64 O12         4.1010    2.1600   -1.4980 o         1 MOL     -0.711989
     65 H26         6.1090    0.4370   -0.8600 hn        1 MOL     -0.060351
     66 H27         7.9210    1.8910   -2.6050 h1        1 MOL      0.007533
     67 H28         6.1570    1.3990   -3.9140 hc        1 MOL      0.095219
     68 H29         5.9400    3.1840   -3.4880 hc        1 MOL      0.095219
     69 N6          6.8610    2.5410    0.2830 n         1 MOL     -0.323884
     70 C23         7.0740    3.4850    1.4040 c3        1 MOL     -0.042192
     71 C24         5.7140    3.9680    1.9320 c         1 MOL      0.460182
     72 O13         5.6820    4.9650    2.6500 o         1 MOL     -0.570393
     73 H30         6.8190    1.5550    0.5130 hn        1 MOL      0.261487
     74 H31         7.6840    4.3120    1.0490 h1        1 MOL      0.078293
     75 H32         7.6040    2.9690    2.2020 h1        1 MOL      0.078293
     76 N7          4.6400    3.5690    1.1960 n         1 MOL     -0.311543
     77 C25         3.2850    4.0840    1.4750 c3        1 MOL      0.119260
     78 C26         2.2930    2.8860    1.5400 c         1 MOL      0.391525
     79 O14         2.4730    1.8390    0.9170 o         1 MOL     -0.610560
     80 C27         2.9060    5.1810    0.4820 c3        1 MOL     -0.002616
     81 C28         3.6190    6.4760    0.6400 c3        1 MOL     -0.349562
     82 C29         3.0430    7.6260   -0.2050 c         1 MOL      0.691843
     83 N8          3.5640    7.9270   -1.3920 n         1 MOL     -0.834727
     84 O15         2.0630    8.2470    0.0690 o         1 MOL     -0.575855
     85 H33         4.6990    2.8220    0.5340 hn        1 MOL      0.290525
     86 H34         3.3180    4.4690    2.4930 h1        1 MOL      0.028893
     87 H35         1.8430    5.3670    0.6270 hc        1 MOL      0.054508
     88 H36         3.0970    4.8430   -0.5320 hc        1 MOL      0.054508
     89 H37         4.6410    6.2740    0.3280 hc        1 MOL      0.120014
     90 H38         3.6860    6.7310    1.6920 hc        1 MOL      0.120014
     91 H39         4.3680    7.4420   -1.7590 hn        1 MOL      0.365709
     92 H40         2.9850    8.5240   -1.9680 hn        1 MOL      0.365709
     93 N9          1.2050    3.1170    2.2090 n         1 MOL     -0.297704
     94 C30        -0.0020    2.3540    2.2280 c3        1 MOL      0.352457
     95 C31        -1.0470    2.9840    1.2070 c         1 MOL      0.263710
     96 O16        -1.2970    4.2000    1.2550 o         1 MOL     -0.542395
     97 C32        -0.5950    2.4180    3.6780 c3        1 MOL      0.051065
     98 C33        -1.9910    1.8070    3.7410 c3        1 MOL     -0.160171
     99 C34         0.2750    1.6910    4.6470 c3        1 MOL     -0.160171
    100 H41         1.1490    4.0150    2.6630 hn        1 MOL      0.202837
    101 H42         0.1690    1.3200    1.9390 h1        1 MOL      0.035134
    102 H43        -0.6440    3.4790    3.9210 hc        1 MOL      0.000045
    103 H44        -2.7140    2.4550    3.2240 hc        1 MOL      0.028342
    104 H45        -1.9830    0.7950    3.3460 hc        1 MOL      0.028342
    105 H46        -2.3300    1.6690    4.7710 hc        1 MOL      0.028342
    106 H47        -0.0930    1.6820    5.6740 hc        1 MOL      0.028342
    107 H48         0.5600    0.7050    4.2670 hc        1 MOL      0.028342
    108 H49         1.2640    2.1240    4.7450 hc        1 MOL      0.028342
    109 N10        -1.7750    2.1500    0.4350 n         1 MOL     -0.011471
    110 C35        -2.8870    2.4090   -0.4770 c3        1 MOL      0.120001
    111 C36        -4.2190    1.8770    0.0770 c         1 MOL      0.237104
    112 O17        -4.3200    1.1990    1.0680 o         1 MOL     -0.229551
    113 C37        -2.4810    1.7000   -1.8170 c3        1 MOL     -0.314410
    114 C38        -3.5790    1.7570   -2.8760 c         1 MOL      0.590583
    115 N11        -3.9260    2.9240   -3.3290 n         1 MOL     -0.763910
    116 O18        -4.3030    0.7990   -3.0380 o         1 MOL     -0.435239
    117 H50        -1.4420    1.2040    0.5250 hn        1 MOL     -0.036008
    118 H51        -2.9770    3.4820   -0.6150 h1        1 MOL      0.035746
    119 H52        -2.1840    0.6740   -1.6350 hc        1 MOL      0.135568
    120 H53        -1.6270    2.2430   -2.2130 hc        1 MOL      0.135568
    121 H54        -3.6670    3.7770   -2.8570 hn        1 MOL      0.355845
    122 H55        -4.6120    2.9240   -4.0700 hn        1 MOL      0.355845
    123 N12        -5.3390    2.1450   -0.5790 n         1 MOL     -0.321954
    124 C39        -6.6740    1.6140   -0.2000 c3        1 MOL      0.006463
    125 C40        -6.6500    0.0450   -0.1690 c         1 MOL      0.745796
    126 O19        -7.1000   -0.5860    0.7400 o         1 MOL     -0.616718
    127 C41        -7.7590    2.1310   -1.1460 c3        1 MOL      0.088403
    128 C42        -9.1500    1.9130   -0.5930 ca        1 MOL     -0.322094
    129 C43        -9.7330    2.7860    0.3200 ca        1 MOL      0.132603
    130 C44        -9.9670    0.8270   -1.0620 ca        1 MOL      0.132603
    131 C45       -11.1200    2.6430    0.6410 ca        1 MOL     -0.419296
    132 C46       -11.3290    0.7090   -0.7670 ca        1 MOL     -0.419296
    133 C47       -11.9160    1.6270    0.1100 ca        1 MOL      0.465992
    134 O20       -13.1400    1.4370    0.5840 oh        1 MOL     -0.602554
    135 H56        -5.3140    2.7300   -1.4020 hn        1 MOL      0.200314
    136 H57        -6.8290    2.0360    0.7980 h1        1 MOL      0.028955
    137 H58        -7.7180    1.5870   -2.1000 hc        1 MOL      0.024192
    138 H59        -7.5460    3.1570   -1.4580 hc        1 MOL      0.024192
    139 H60        -9.1840    3.6360    0.6850 ha        1 MOL      0.049697
    140 H61        -9.5160    0.0930   -1.7130 ha        1 MOL      0.049697
    141 H62       -11.6760    3.2840    1.3070 ha        1 MOL      0.157854
    142 H63       -11.8370   -0.1950   -1.0550 ha        1 MOL      0.157854
    143 H64       -13.6120    0.7270    0.1460 ho        1 MOL      0.429873
    144 N13        -6.1310   -0.6000   -1.2490 n         1 MOL     -0.090426
    145 C48        -5.9890   -2.0930   -1.3460 c3        1 MOL     -0.280244
    146 C49        -5.1030   -2.7890   -0.2670 c         1 MOL      0.436421
    147 O21        -5.0290   -3.9760   -0.1740 o         1 MOL     -0.539265
    148 C50        -5.4060   -2.4700   -2.6640 c3        1 MOL      0.074250
    149 C51        -6.1560   -1.9210   -3.8850 c3        1 MOL     -0.182797
    150 C52        -7.7530   -1.8290   -3.6990 c         1 MOL      0.750928
    151 O22        -8.4000   -2.7870   -3.2780 o         1 MOL     -0.719392
    152 O23        -8.2420   -0.7640   -4.0970 o         1 MOL     -0.719392
    153 H65        -5.8160   -0.0300   -2.0240 hn        1 MOL      0.056485
    154 H66        -7.0110   -2.4670   -1.2820 h1        1 MOL      0.163730
    155 H67        -5.5280   -3.5550   -2.7610 hc        1 MOL      0.024929
    156 H68        -4.3500   -2.2050   -2.6970 hc        1 MOL      0.024929
    157 H69        -6.0240   -2.6570   -4.6800 hc        1 MOL     -0.006796
    158 H70        -5.8370   -0.9160   -4.1550 hc        1 MOL     -0.006796
    159 N14        -4.3660   -2.0180    0.5080 n         1 MOL     -0.156104
    160 C53        -3.4410   -2.4210    1.5880 c3        1 MOL     -0.017044
    161 C54        -4.0780   -1.9620    2.9530 c         1 MOL      0.432008
    162 O24        -3.9430   -2.6200    3.9460 o         1 MOL     -0.571937
    163 C55        -2.0490   -1.8140    1.2740 c3        1 MOL      0.205626
    164 C56        -1.3480   -2.1340   -0.0710 c3        1 MOL      0.074573
    165 C57        -0.0250   -1.5520   -0.0640 c         1 MOL      0.615669
    166 O25         1.0250   -2.1930   -0.2460 o         1 MOL     -0.674089
    167 O26         0.1250   -0.2760    0.0070 o         1 MOL     -0.674089
    168 H71        -4.3970   -1.0410    0.2460 hn        1 MOL      0.113067
    169 H72        -3.2610   -3.4980    1.6090 h1        1 MOL      0.063505
    170 H73        -1.3820   -2.0600    2.0980 hc        1 MOL     -0.008354
    171 H74        -2.1020   -0.7280    1.3160 hc        1 MOL     -0.008354
    172 H75        -2.0400   -1.7620   -0.8220 hc        1 MOL     -0.040611
    173 H76        -1.3350   -3.2230   -0.1720 hc        1 MOL     -0.040611
    174 N15        -4.7470   -0.8540    2.9170 n         1 MOL      0.008207
    175 C58        -5.4780   -0.3700    4.1220 c3        1 MOL     -0.180225
    176 H77        -6.0010   -1.2050    4.5880 h1        1 MOL      0.072502
    177 H78        -4.7690    0.0550    4.8320 h1        1 MOL      0.072502
    178 H79        -6.2000    0.3920    3.8280 h1        1 MOL      0.072502
    179 H80        -4.6490   -0.2690    2.0940 hn        1 MOL     -0.086989
    180 Ca1         2.4620    0.0920   -1.1440 Ca        1 MOL      1.730065
    181 O27         0.5180   -0.8030   -3.1270 oh        1 MOL     -0.828625
    182 H81         1.1270   -1.4170   -3.5440 ho        1 MOL      0.381783
    183 H82         0.1030   -0.3500   -3.8580 ho        1 MOL      0.381783
    184 O28         0.9140    2.0310   -2.5220 oh        1 MOL     -0.828625
    185 H83         0.3020    1.9640   -3.2540 ho        1 MOL      0.381783
    186 H84         1.7030    2.4330   -2.8930 ho        1 MOL      0.381783
@<TRIPOS>BOND
     1    1    2 1   
     2    1    4 1   
     3    1    5 1   
     4    1    6 1   
     5    2    3 2   
     6    2    7 1   
     7    7    8 1   
     8    7   15 1   
     9    8    9 1   
    10    8   11 1   
    11    8   16 1   
    12    9   10 2   
    13    9   19 1   
    14   11   12 1   
    15   11   17 1   
    16   11   18 1   
    17   12   13 1   
    18   12   14 1   
    19   19   20 1   
    20   19   27 1   
    21   20   21 1   
    22   20   23 1   
    23   20   28 1   
    24   21   22 2   
    25   21   38 1   
    26   23   24 1   
    27   23   25 1   
    28   23   29 1   
    29   24   26 1   
    30   24   30 1   
    31   24   31 1   
    32   25   32 1   
    33   25   33 1   
    34   25   34 1   
    35   26   35 1   
    36   26   36 1   
    37   26   37 1   
    38   38   39 1   
    39   38   46 1   
    40   39   40 1   
    41   39   42 1   
    42   39   47 1   
    43   40   41 2   
    44   40   50 1   
    45   42   43 1   
    46   42   48 1   
    47   42   49 1   
    48   43   44 1   
    49   43   45 1   
    50   50   51 1   
    51   50   54 1   
    52   51   52 1   
    53   51   55 1   
    54   51   56 1   
    55   52   53 2   
    56   52   57 1   
    57   57   58 1   
    58   57   65 1   
    59   58   59 1   
    60   58   61 1   
    61   58   66 1   
    62   59   60 2   
    63   59   69 1   
    64   61   62 1   
    65   61   67 1   
    66   61   68 1   
    67   62   63 1   
    68   62   64 1   
    69   69   70 1   
    70   69   73 1   
    71   70   71 1   
    72   70   74 1   
    73   70   75 1   
    74   71   72 2   
    75   71   76 1   
    76   76   77 1   
    77   76   85 1   
    78   77   78 1   
    79   77   80 1   
    80   77   86 1   
    81   78   79 2   
    82   78   93 1   
    83   80   81 1   
    84   80   87 1   
    85   80   88 1   
    86   81   82 1   
    87   81   89 1   
    88   81   90 1   
    89   82   83 1   
    90   82   84 2   
    91   83   91 1   
    92   83   92 1   
    93   93   94 1   
    94   93  100 1   
    95   94   95 1   
    96   94   97 1   
    97   94  101 1   
    98   95   96 2   
    99   95  109 1   
   100   97   98 1   
   101   97   99 1   
   102   97  102 1   
   103   98  103 1   
   104   98  104 1   
   105   98  105 1   
   106   99  106 1   
   107   99  107 1   
   108   99  108 1   
   109  109  110 1   
   110  109  117 1   
   111  110  111 1   
   112  110  113 1   
   113  110  118 1   
   114  111  112 2   
   115  111  123 1   
   116  113  114 1   
   117  113  119 1   
   118  113  120 1   
   119  114  115 1   
   120  114  116 2   
   121  115  121 1   
   122  115  122 1   
   123  123  124 1   
   124  123  135 1   
   125  124  125 1   
   126  124  127 1   
   127  124  136 1   
   128  125  126 2   
   129  125  144 1   
   130  127  128 1   
   131  127  137 1   
   132  127  138 1   
   133  128  129 ar  
   134  128  130 ar  
   135  129  131 ar  
   136  129  139 1   
   137  130  132 ar  
   138  130  140 1   
   139  131  133 ar  
   140  131  141 1   
   141  132  133 ar  
   142  132  142 1   
   143  133  134 1   
   144  134  143 1   
   145  144  145 1   
   146  144  153 1   
   147  145  146 1   
   148  145  148 1   
   149  145  154 1   
   150  146  147 2   
   151  146  159 1   
   152  148  149 1   
   153  148  155 1   
   154  148  156 1   
   155  149  150 1   
   156  149  157 1   
   157  149  158 1   
   158  150  151 1   
   159  150  152 1   
   160  159  160 1   
   161  159  168 1   
   162  160  161 1   
   163  160  163 1   
   164  160  169 1   
   165  161  162 2   
   166  161  174 1   
   167  163  164 1   
   168  163  170 1   
   169  163  171 1   
   170  164  165 1   
   171  164  172 1   
   172  164  173 1   
   173  165  166 1   
   174  165  167 1   
   175  174  175 1   
   176  174  179 1   
   177  175  176 1   
   178  175  177 1   
   179  175  178 1   
   180  181  182 1   
   181  181  183 1   
   182  184  185 1   
   183  184  186 1   
@<TRIPOS>SUBSTRUCTURE
     1 MOL         1 TEMP              0 ****  ****    0 ROOT
