@<TRIPOS>MOLECULE
MOL
  175   173     1     0     0
SMALL
resp


@<TRIPOS>ATOM
      1 C1         -0.2350   -3.7930    5.3640 c3        1 MOL     -0.329259
      2 C2          0.3550   -3.7910    3.9810 c         1 MOL      0.747423
      3 O1         -0.3620   -4.0330    3.0070 o         1 MOL     -0.599492
      4 H1          0.1270   -2.9240    5.9140 hc        1 MOL      0.077346
      5 H2         -1.3220   -3.7520    5.2970 hc        1 MOL      0.077346
      6 H3          0.0640   -4.7020    5.8860 hc        1 MOL      0.077346
      7 N1          1.5710   -3.3360    3.8760 n         1 MOL     -0.656108
      8 C3          2.3210   -3.0990    2.6090 c3        1 MOL      0.239164
      9 C4          2.6170   -4.4060    1.8230 c         1 MOL      0.507545
     10 O2          3.3230   -5.2960    2.2360 o         1 MOL     -0.547601
     11 C5          3.7490   -2.4840    2.9490 c3        1 MOL     -0.409102
     12 C6          4.4620   -2.1150    1.6390 c         1 MOL      0.730705
     13 O3          3.8230   -1.7170    0.6190 o         1 MOL     -0.651073
     14 O4          5.7070   -2.2260    1.5690 o         1 MOL     -0.651073
     15 H4          1.9540   -3.0080    4.7530 hn        1 MOL      0.318677
     16 H5          1.8060   -2.3800    1.9780 h1        1 MOL      0.010709
     17 H6          4.2220   -3.3380    3.4230 hc        1 MOL      0.086542
     18 H7          3.7840   -1.6320    3.6280 hc        1 MOL      0.086542
     19 N2          2.1230   -4.3550    0.5920 n         1 MOL     -0.471981
     20 C7          2.4080   -5.4300   -0.3620 c3        1 MOL      0.432932
     21 C8          3.5390   -5.0950   -1.3870 c         1 MOL      0.349557
     22 O5          3.9560   -5.9930   -2.2320 o         1 MOL     -0.601559
     23 C9          1.1290   -5.7530   -1.1240 c3        1 MOL     -0.472438
     24 H8          1.6500   -3.4960    0.3630 hn        1 MOL      0.331706
     25 H9          2.8070   -6.2810    0.1940 h1        1 MOL      0.003597
     26 H10         0.2610   -5.4440   -0.5380 hc        1 MOL      0.116932
     27 H11         1.1240   -5.1570   -2.0330 hc        1 MOL      0.116932
     28 H12         1.2260   -6.8000   -1.3870 hc        1 MOL      0.116932
     29 N3          4.0850   -3.9030   -1.4540 n         1 MOL     -0.393352
     30 C10         4.9080   -3.4840   -2.6510 c3        1 MOL      0.388584
     31 C11         6.1600   -2.7100   -2.2110 c         1 MOL      0.281653
     32 O6          7.1820   -2.8390   -2.9330 o         1 MOL     -0.554668
     33 C12         4.1430   -2.8120   -3.7430 c3        1 MOL     -0.188808
     34 C13         3.4010   -1.5540   -3.3580 c         1 MOL      0.736525
     35 O7          2.5160   -1.1010   -4.1340 o         1 MOL     -0.707091
     36 O8          3.5070   -1.0090   -2.2490 o         1 MOL     -0.707091
     37 H13         3.6880   -3.2210   -0.8200 hn        1 MOL      0.225510
     38 H14         5.4520   -4.2860   -3.1490 h1        1 MOL      0.020546
     39 H15         3.4340   -3.5130   -4.1980 hc        1 MOL      0.024880
     40 H16         4.8960   -2.5430   -4.4790 hc        1 MOL      0.024880
     41 N4          6.1970   -2.0020   -1.0600 n         1 MOL     -0.087162
     42 C14         7.3280   -1.0870   -0.8090 c3        1 MOL     -0.151651
     43 C15         7.3240    0.3620   -1.5090 c         1 MOL      0.461767
     44 O9          8.3210    1.0460   -1.4730 o         1 MOL     -0.585467
     45 H17         5.3140   -1.8970   -0.5930 hn        1 MOL      0.069147
     46 H18         8.2110   -1.5700   -1.2160 h1        1 MOL      0.095290
     47 H19         7.4880   -0.9110    0.2520 h1        1 MOL      0.095290
     48 N5          6.1900    0.8820   -1.9890 n         1 MOL     -0.122955
     49 C16         6.0410    2.2930   -2.3520 c3        1 MOL     -0.212938
     50 C17         6.0150    3.2650   -1.1520 c         1 MOL      0.549315
     51 O10         5.8230    4.4760   -1.3300 o         1 MOL     -0.515906
     52 C18         4.7430    2.4470   -3.2510 c3        1 MOL      0.074238
     53 C19         3.3610    2.3440   -2.5390 c         1 MOL      0.397552
     54 N6          2.2740    2.5010   -3.2780 n         1 MOL     -0.521498
     55 O11         3.3170    2.1330   -1.3670 o         1 MOL     -0.568992
     56 H20         5.3930    0.2590   -2.0030 hn        1 MOL      0.120763
     57 H21         6.7370    2.6480   -3.1110 h1        1 MOL      0.132795
     58 H22         4.8430    1.7070   -4.0510 hc        1 MOL      0.014514
     59 H23         4.9010    3.3990   -3.7630 hc        1 MOL      0.014514
     60 H24         2.5050    2.6860   -4.2420 hn        1 MOL      0.298228
     61 H25         1.3100    2.3850   -2.9760 hn        1 MOL      0.298228
     62 N7          6.0940    2.8100    0.1190 n         1 MOL     -0.330535
     63 C20         6.2110    3.7450    1.2830 c3        1 MOL     -0.200351
     64 C21         4.9570    4.5020    1.6140 c         1 MOL      0.522487
     65 O12         5.0120    5.5780    2.1330 o         1 MOL     -0.569884
     66 H26         5.9120    1.8560    0.3880 hn        1 MOL      0.292475
     67 H27         7.0620    4.3840    1.0520 h1        1 MOL      0.105195
     68 H28         6.4910    3.1040    2.1120 h1        1 MOL      0.105195
     69 N8          3.8210    3.9380    1.2470 n         1 MOL      0.004321
     70 C22         2.4980    4.5520    1.5450 c3        1 MOL     -0.440791
     71 C23         1.4180    3.4280    1.5590 c         1 MOL      0.747537
     72 O13         1.4810    2.5240    0.7520 o         1 MOL     -0.623334
     73 C24         2.0460    5.5000    0.4650 c3        1 MOL      0.665438
     74 C25         2.6960    6.9330    0.4930 c3        1 MOL     -0.532425
     75 O14         2.2140    4.9070   -0.8120 oh        1 MOL     -0.672289
     76 H29         3.8540    2.9630    0.9750 hn        1 MOL      0.021387
     77 H30         2.4770    5.0500    2.5090 h1        1 MOL      0.109009
     78 H31         0.9670    5.5930    0.6290 h1        1 MOL     -0.087987
     79 H32         2.3660    3.9840   -0.6090 ho        1 MOL      0.452809
     80 H33         3.7600    6.7120    0.4080 hc        1 MOL      0.131785
     81 H34         2.3390    7.5100   -0.3600 hc        1 MOL      0.131785
     82 H35         2.3710    7.4960    1.3680 hc        1 MOL      0.131785
     83 N9          0.4040    3.4650    2.3590 n         1 MOL     -0.570627
     84 C26        -0.7070    2.5350    2.2480 c3        1 MOL     -0.005970
     85 C27        -1.4260    2.7930    0.8780 c         1 MOL      0.476267
     86 O15        -1.6760    3.9290    0.5060 o         1 MOL     -0.557759
     87 C28        -1.6590    2.6290    3.4140 c3        1 MOL      0.134508
     88 C29        -0.9340    2.2170    4.7330 c3        1 MOL      0.096604
     89 C30        -2.9150    1.7520    3.2790 c3        1 MOL     -0.159899
     90 C31        -1.4020    2.8180    6.0730 c3        1 MOL     -0.157134
     91 H36         0.1890    4.3420    2.7990 hn        1 MOL      0.309895
     92 H37        -0.2630    1.5310    2.1600 h1        1 MOL     -0.003075
     93 H38        -2.0390    3.6400    3.5080 hc        1 MOL      0.004566
     94 H39         0.0730    2.6430    4.7580 hc        1 MOL     -0.018945
     95 H40        -0.7700    1.1520    4.8710 hc        1 MOL     -0.018945
     96 H41        -3.4800    2.0110    2.3840 hc        1 MOL      0.021348
     97 H42        -2.6020    0.7130    3.2970 hc        1 MOL      0.021348
     98 H43        -3.5870    1.8960    4.1260 hc        1 MOL      0.021348
     99 H44        -2.2950    2.3640    6.4910 hc        1 MOL      0.029106
    100 H45        -0.6720    2.5100    6.8180 hc        1 MOL      0.029106
    101 H46        -1.5000    3.9070    6.0450 hc        1 MOL      0.029106
    102 N10        -1.8060    1.7180    0.2040 n         1 MOL     -0.147682
    103 C32        -2.7420    1.7260   -0.9670 c3        1 MOL     -0.121142
    104 C33        -4.1080    1.2380   -0.6060 c         1 MOL      0.599194
    105 O16        -4.3870    0.5480    0.3380 o         1 MOL     -0.409313
    106 C34        -2.2160    0.8410   -2.0760 c3        1 MOL     -0.283973
    107 C35        -0.8010    1.2910   -2.3760 c         1 MOL      0.722600
    108 O17         0.2010    0.8390   -1.7000 o         1 MOL     -0.654038
    109 O18        -0.5540    1.9250   -3.4570 o         1 MOL     -0.654038
    110 H47        -1.5670    0.8210    0.6130 hn        1 MOL      0.252248
    111 H48        -2.9670    2.7380   -1.2960 h1        1 MOL      0.105576
    112 H49        -2.7810    0.9700   -2.9880 hc        1 MOL      0.078411
    113 H50        -2.1620   -0.2260   -1.8500 hc        1 MOL      0.078411
    114 N11        -5.0700    1.6480   -1.4720 n         1 MOL     -0.725944
    115 C36        -6.5040    1.3230   -1.3400 c3        1 MOL      0.538943
    116 C37        -6.8390   -0.1450   -0.9910 c         1 MOL      0.316368
    117 O19        -7.4260   -0.3310    0.0580 o         1 MOL     -0.516362
    118 C38        -7.3130    2.0040   -2.5030 c3        1 MOL     -0.315952
    119 C39        -8.8310    1.9440   -2.3020 ca        1 MOL      0.110566
    120 C40        -9.4080    3.0720   -1.6840 ca        1 MOL     -0.155390
    121 C41        -9.6080    0.8260   -2.6940 ca        1 MOL     -0.155390
    122 C42       -10.8300    3.0870   -1.5000 ca        1 MOL     -0.141803
    123 C43       -10.9340    0.7790   -2.3190 ca        1 MOL     -0.141803
    124 C44       -11.5620    1.8840   -1.7310 ca        1 MOL     -0.074567
    125 H51        -4.7640    1.9560   -2.3890 hn        1 MOL      0.347451
    126 H52        -6.9830    1.8510   -0.5140 h1        1 MOL     -0.011696
    127 H53        -7.1620    1.5090   -3.4580 hc        1 MOL      0.075307
    128 H54        -6.9830    3.0500   -2.5340 hc        1 MOL      0.075307
    129 H55        -8.8130    3.8950   -1.3180 ha        1 MOL      0.132777
    130 H56        -9.2760    0.0620   -3.3740 ha        1 MOL      0.132777
    131 H57       -11.2700    3.9480   -1.0120 ha        1 MOL      0.115345
    132 H58       -11.6020   -0.0220   -2.6290 ha        1 MOL      0.115345
    133 H59       -12.6350    1.8460   -1.5960 ha        1 MOL      0.091165
    134 N12        -6.3120   -1.1710   -1.6700 n         1 MOL     -0.072002
    135 C45        -6.5650   -2.5580   -1.2650 c3        1 MOL     -0.011867
    136 C46        -5.7590   -3.0250    0.0300 c         1 MOL      0.246266
    137 O20        -5.9950   -4.0950    0.6120 o         1 MOL     -0.486233
    138 C47        -6.1670   -3.3790   -2.4790 c3        1 MOL      0.002626
    139 C48        -6.1900   -2.3200   -3.5950 c3        1 MOL     -0.210613
    140 C49        -5.6290   -1.0670   -2.9310 c3        1 MOL     -0.098739
    141 H60        -7.6210   -2.7100   -1.0680 h1        1 MOL      0.101243
    142 H61        -5.1630   -3.8040   -2.4340 hc        1 MOL      0.052759
    143 H62        -6.8510   -4.1920   -2.7090 hc        1 MOL      0.052759
    144 H63        -5.4320   -2.6250   -4.3170 hc        1 MOL      0.068801
    145 H64        -7.1830   -2.2150   -4.0500 hc        1 MOL      0.068801
    146 H65        -4.5640   -1.2740   -2.8180 h1        1 MOL      0.093641
    147 H66        -5.7360   -0.1500   -3.5160 h1        1 MOL      0.093641
    148 N13        -4.6690   -2.3160    0.3480 n         1 MOL     -0.097684
    149 C50        -3.9420   -2.4690    1.6300 c3        1 MOL     -0.064226
    150 C51        -4.7190   -1.7560    2.7780 c         1 MOL      0.429853
    151 O21        -4.7480   -2.2930    3.9090 o         1 MOL     -0.573666
    152 C52        -2.5760   -1.8020    1.4870 c3        1 MOL     -0.041578
    153 C53        -1.7740   -2.2750    0.3230 c3        1 MOL     -0.071025
    154 C54        -0.4580   -1.5320    0.2090 c         1 MOL      0.673681
    155 O22         0.4770   -2.0360   -0.3910 o         1 MOL     -0.738196
    156 O23        -0.2210   -0.5310    0.9480 o         1 MOL     -0.738196
    157 H67        -4.5350   -1.4640   -0.1800 hn        1 MOL      0.067199
    158 H68        -3.7890   -3.5190    1.9030 h1        1 MOL      0.122367
    159 H69        -2.1570   -2.1370    2.4290 hc        1 MOL      0.045463
    160 H70        -2.7350   -0.7290    1.3590 hc        1 MOL      0.045463
    161 H71        -2.3440   -2.1250   -0.6010 hc        1 MOL      0.053110
    162 H72        -1.4920   -3.3250    0.3590 hc        1 MOL      0.053110
    163 N14        -5.5470   -0.7620    2.5150 n         1 MOL      0.008338
    164 C55        -6.4440   -0.1520    3.5270 c3        1 MOL     -0.202353
    165 H73        -7.4770   -0.4140    3.3020 h1        1 MOL      0.073537
    166 H74        -6.1830   -0.5260    4.5170 h1        1 MOL      0.073537
    167 H75        -6.3320    0.9320    3.5060 h1        1 MOL      0.073537
    168 H76        -5.5410   -0.2700    1.6320 hn        1 MOL      0.107656
    169 Ca1         2.1290    0.1240   -0.1580 Ca        1 MOL      1.703913
    170 O24         1.7000    0.1390    2.6720 oh        1 MOL     -0.772404
    171 H77         0.8200   -0.1490    2.4320 ho        1 MOL      0.392960
    172 H78         1.7670   -0.0870    3.6000 ho        1 MOL      0.392960
    173 O25         3.9380    1.0410    1.6890 oh        1 MOL     -0.772404
    174 H79         4.7880    0.7650    2.0370 ho        1 MOL      0.392960
    175 H80         3.3140    0.8200    2.3890 ho        1 MOL      0.392960
@<TRIPOS>BOND
     1    1    2 1   
     2    1    4 1   
     3    1    5 1   
     4    1    6 1   
     5    2    3 2   
     6    2    7 1   
     7    7    8 1   
     8    7   15 1   
     9    8    9 1   
    10    8   11 1   
    11    8   16 1   
    12    9   10 2   
    13    9   19 1   
    14   11   12 1   
    15   11   17 1   
    16   11   18 1   
    17   12   13 1   
    18   12   14 1   
    19   19   20 1   
    20   19   24 1   
    21   20   21 1   
    22   20   23 1   
    23   20   25 1   
    24   21   22 2   
    25   21   29 1   
    26   23   26 1   
    27   23   27 1   
    28   23   28 1   
    29   29   30 1   
    30   29   37 1   
    31   30   31 1   
    32   30   33 1   
    33   30   38 1   
    34   31   32 2   
    35   31   41 1   
    36   33   34 1   
    37   33   39 1   
    38   33   40 1   
    39   34   35 1   
    40   34   36 1   
    41   41   42 1   
    42   41   45 1   
    43   42   43 1   
    44   42   46 1   
    45   42   47 1   
    46   43   44 2   
    47   43   48 1   
    48   48   49 1   
    49   48   56 1   
    50   49   50 1   
    51   49   52 1   
    52   49   57 1   
    53   50   51 2   
    54   50   62 1   
    55   52   53 1   
    56   52   58 1   
    57   52   59 1   
    58   53   54 1   
    59   53   55 2   
    60   54   60 1   
    61   54   61 1   
    62   62   63 1   
    63   62   66 1   
    64   63   64 1   
    65   63   67 1   
    66   63   68 1   
    67   64   65 2   
    68   64   69 1   
    69   69   70 1   
    70   69   76 1   
    71   70   71 1   
    72   70   73 1   
    73   70   77 1   
    74   71   72 2   
    75   71   83 1   
    76   73   74 1   
    77   73   75 1   
    78   73   78 1   
    79   74   80 1   
    80   74   81 1   
    81   74   82 1   
    82   75   79 1   
    83   83   84 1   
    84   83   91 1   
    85   84   85 1   
    86   84   87 1   
    87   84   92 1   
    88   85   86 2   
    89   85  102 1   
    90   87   88 1   
    91   87   89 1   
    92   87   93 1   
    93   88   90 1   
    94   88   94 1   
    95   88   95 1   
    96   89   96 1   
    97   89   97 1   
    98   89   98 1   
    99   90   99 1   
   100   90  100 1   
   101   90  101 1   
   102  102  103 1   
   103  102  110 1   
   104  103  104 1   
   105  103  106 1   
   106  103  111 1   
   107  104  105 2   
   108  104  114 1   
   109  106  107 1   
   110  106  112 1   
   111  106  113 1   
   112  107  108 1   
   113  107  109 1   
   114  114  115 1   
   115  114  125 1   
   116  115  116 1   
   117  115  118 1   
   118  115  126 1   
   119  116  117 2   
   120  116  134 1   
   121  118  119 1   
   122  118  127 1   
   123  118  128 1   
   124  119  120 ar  
   125  119  121 ar  
   126  120  122 ar  
   127  120  129 1   
   128  121  123 ar  
   129  121  130 1   
   130  122  124 ar  
   131  122  131 1   
   132  123  124 ar  
   133  123  132 1   
   134  124  133 1   
   135  134  135 1   
   136  134  140 1   
   137  135  136 1   
   138  135  138 1   
   139  135  141 1   
   140  136  137 2   
   141  136  148 1   
   142  138  139 1   
   143  138  142 1   
   144  138  143 1   
   145  139  140 1   
   146  139  144 1   
   147  139  145 1   
   148  140  146 1   
   149  140  147 1   
   150  148  149 1   
   151  148  157 1   
   152  149  150 1   
   153  149  152 1   
   154  149  158 1   
   155  150  151 2   
   156  150  163 1   
   157  152  153 1   
   158  152  159 1   
   159  152  160 1   
   160  153  154 1   
   161  153  161 1   
   162  153  162 1   
   163  154  155 1   
   164  154  156 1   
   165  163  164 1   
   166  163  168 1   
   167  164  165 1   
   168  164  166 1   
   169  164  167 1   
   170  170  171 1   
   171  170  172 1   
   172  173  174 1   
   173  173  175 1   
@<TRIPOS>SUBSTRUCTURE
     1 MOL         1 TEMP              0 ****  ****    0 ROOT
