@<TRIPOS>MOLECULE
MOL
  182   178     1     0     0
SMALL
resp


@<TRIPOS>ATOM
      1 C1          1.6090    2.7320    6.1970 c3        1 MOL     -0.304682
      2 C2          1.1970    2.5400    4.6990 c         1 MOL      0.725035
      3 O1          2.0740    2.3450    3.7860 o         1 MOL     -0.597535
      4 H1          1.6890    3.7960    6.4180 hc        1 MOL      0.078950
      5 H2          0.8550    2.2830    6.8420 hc        1 MOL      0.078950
      6 H3          2.5720    2.2510    6.3740 hc        1 MOL      0.078950
      7 N1         -0.1260    2.6750    4.4280 n         1 MOL     -0.681873
      8 C3         -0.7290    2.7000    3.0610 c3        1 MOL      0.201339
      9 C4         -0.7170    4.0570    2.3530 c         1 MOL      0.707206
     10 O2         -1.1910    5.0230    2.9080 o         1 MOL     -0.606669
     11 C5         -2.1900    2.1420    3.1910 c3        1 MOL     -0.292839
     12 C6         -2.7350    1.7980    1.7810 c         1 MOL      0.685520
     13 O3         -2.1640    2.0870    0.6770 o         1 MOL     -0.636893
     14 O4         -3.8100    1.1450    1.8100 o         1 MOL     -0.636893
     15 H4         -0.7290    2.6130    5.2360 hn        1 MOL      0.343202
     16 H5         -0.1340    2.0250    2.4480 h1        1 MOL     -0.070412
     17 H6         -2.8650    2.7560    3.7760 hc        1 MOL      0.091659
     18 H7         -2.0600    1.1730    3.6680 hc        1 MOL      0.091659
     19 N2         -0.1520    4.0400    1.1570 n         1 MOL     -0.520469
     20 C7          0.1160    5.2530    0.2740 c3        1 MOL     -0.132133
     21 C8         -0.9650    5.4910   -0.8160 c         1 MOL      0.600470
     22 O5         -0.8710    6.4440   -1.5490 o         1 MOL     -0.593974
     23 C9          1.5920    4.9600   -0.2560 c3        1 MOL     -0.039524
     24 C10         2.3320    6.0990   -0.9290 c3        1 MOL      0.077390
     25 C11         3.8380    5.7840   -1.1260 c3        1 MOL     -0.091754
     26 C12         4.5930    6.7860   -1.9840 c3        1 MOL      0.060165
     27 N3          4.8910    8.0330   -1.2430 n4        1 MOL     -0.456427
     28 H8          0.0340    3.1700    0.6890 hn        1 MOL      0.344676
     29 H9          0.1110    6.1400    0.9120 h1        1 MOL      0.132018
     30 H10         1.6180    4.0860   -0.8980 hc        1 MOL      0.072310
     31 H11         2.1880    4.6380    0.5950 hc        1 MOL      0.072310
     32 H12         2.2730    6.9960   -0.3190 hc        1 MOL     -0.021408
     33 H13         1.8380    6.3210   -1.8790 hc        1 MOL     -0.021408
     34 H14         3.7610    4.8690   -1.7020 hc        1 MOL      0.057242
     35 H15         4.3550    5.6470   -0.1740 hc        1 MOL      0.057242
     36 H16         4.1320    6.9320   -2.9670 hx        1 MOL      0.088699
     37 H17         5.5150    6.2670   -2.2450 hx        1 MOL      0.088699
     38 H18         4.0330    8.4200   -0.8760 hn        1 MOL      0.354799
     39 H19         5.4990    7.8150   -0.4590 hn        1 MOL      0.354799
     40 H20         5.4270    8.7330   -1.7390 hn        1 MOL      0.354799
     41 N4         -2.0860    4.8240   -0.7970 n         1 MOL     -0.389935
     42 C13        -3.2720    5.1250   -1.6410 c3        1 MOL      0.110106
     43 C14        -4.5820    4.7040   -0.9640 c         1 MOL      0.299011
     44 O6         -5.6470    5.0600   -1.4410 o         1 MOL     -0.512371
     45 C15        -3.1910    4.5760   -3.0310 c3        1 MOL     -0.234984
     46 C16        -3.3290    3.0280   -3.1270 c         1 MOL      0.880231
     47 O7         -3.5700    2.5650   -4.2630 o         1 MOL     -0.741549
     48 O8         -3.1490    2.2060   -2.1920 o         1 MOL     -0.741549
     49 H21        -2.0670    3.9400   -0.3090 hn        1 MOL      0.183025
     50 H22        -3.2470    6.2150   -1.7520 h1        1 MOL      0.108920
     51 H23        -2.3030    4.9230   -3.5580 hc        1 MOL      0.060160
     52 H24        -4.0430    5.0430   -3.5290 hc        1 MOL      0.060160
     53 N5         -4.6240    3.8280    0.0250 n         1 MOL     -0.025024
     54 C17        -5.8030    3.6290    0.8580 c3        1 MOL     -0.178665
     55 C18        -6.5490    2.2910    0.5480 c         1 MOL      0.557412
     56 O9         -7.7190    2.1490    0.9070 o         1 MOL     -0.586449
     57 H25        -3.7600    3.3920    0.3350 hn        1 MOL      0.099393
     58 H26        -6.4560    4.4890    0.7640 h1        1 MOL      0.102481
     59 H27        -5.3990    3.6100    1.8800 h1        1 MOL      0.102481
     60 N6         -6.0180    1.3840   -0.2530 n         1 MOL     -0.160418
     61 C19        -6.6190    0.1110   -0.6780 c3        1 MOL     -0.142284
     62 C20        -6.6280   -1.0290    0.3490 c         1 MOL      0.375955
     63 O10        -7.0740   -2.1490    0.0480 o         1 MOL     -0.475102
     64 C21        -5.9140   -0.2640   -2.0050 c3        1 MOL     -0.281890
     65 C22        -4.6000   -0.9850   -1.8910 c         1 MOL      0.638483
     66 N7         -4.3320   -1.9370   -2.7270 n         1 MOL     -0.668610
     67 O11        -3.7300   -0.6760   -1.0350 o         1 MOL     -0.610666
     68 H28        -5.0220    1.4570   -0.3560 hn        1 MOL      0.094039
     69 H29        -7.6580    0.3530   -0.9170 h1        1 MOL      0.173916
     70 H30        -5.7330    0.6060   -2.6390 hc        1 MOL      0.125743
     71 H31        -6.5290   -0.9530   -2.5800 hc        1 MOL      0.125743
     72 H32        -4.9840   -2.0740   -3.4950 hn        1 MOL      0.327176
     73 H33        -3.6520   -2.6700   -2.5790 hn        1 MOL      0.327176
     74 N8         -6.0460   -0.8790    1.5870 n         1 MOL     -0.092997
     75 C23        -5.9480   -1.9190    2.5830 c3        1 MOL     -0.406370
     76 C24        -4.7920   -2.9550    2.3490 c         1 MOL      0.609456
     77 O12        -4.6180   -3.8740    3.1370 o         1 MOL     -0.572548
     78 H34        -5.6310    0.0230    1.7710 hn        1 MOL      0.207057
     79 H35        -6.8800   -2.4740    2.6600 h1        1 MOL      0.171167
     80 H36        -5.6290   -1.4700    3.5310 h1        1 MOL      0.171167
     81 N9         -3.9250   -2.7850    1.3200 n         1 MOL     -0.278337
     82 C25        -2.7460   -3.6160    1.0330 c3        1 MOL      0.248607
     83 C26        -1.4580   -2.7140    0.9930 c         1 MOL      0.326482
     84 O13        -1.5350   -1.4960    0.5710 o         1 MOL     -0.551003
     85 C27        -2.9110   -4.4770   -0.2430 c3        1 MOL     -0.114184
     86 C28        -4.0790   -5.3880   -0.4540 ca        1 MOL     -0.222618
     87 C29        -5.1840   -4.9730   -1.3100 ca        1 MOL      0.128044
     88 C30        -3.9890   -6.6390    0.0350 ca        1 MOL      0.128044
     89 C31        -6.0720   -5.9940   -1.7690 ca        1 MOL     -0.453080
     90 C32        -4.9340   -7.6010   -0.3680 ca        1 MOL     -0.453080
     91 C33        -5.9840   -7.2810   -1.2460 ca        1 MOL      0.468281
     92 O14        -6.9790   -8.1220   -1.4950 oh        1 MOL     -0.462483
     93 H37        -3.9230   -1.8530    0.9410 hn        1 MOL      0.169535
     94 H38        -2.5810   -4.2000    1.9370 h1        1 MOL      0.004710
     95 H39        -1.9630   -4.9590   -0.4800 hc        1 MOL      0.051805
     96 H40        -3.0050   -3.6860   -0.9730 hc        1 MOL      0.051805
     97 H41        -5.2130   -3.9620   -1.7080 ha        1 MOL      0.058709
     98 H42        -3.1210   -7.0490    0.5180 ha        1 MOL      0.058709
     99 H43        -6.9310   -5.7280   -2.3660 ha        1 MOL      0.179389
    100 H44        -4.8130   -8.5830    0.0530 ha        1 MOL      0.179389
    101 H45        -6.8140   -8.9550   -1.0430 ho        1 MOL      0.347275
    102 N10        -0.2630   -3.2880    1.2870 n         1 MOL     -0.257914
    103 C34         1.0440   -2.6360    1.1200 c3        1 MOL     -0.314005
    104 C35         2.1580   -3.4960    0.5030 c         1 MOL      0.449017
    105 O15         2.2990   -4.6770    0.8710 o         1 MOL     -0.531334
    106 C36         1.5210   -1.9740    2.4870 c3        1 MOL      0.175062
    107 C37         1.8010   -2.9290    3.6390 c3        1 MOL     -0.208385
    108 C38         0.6300   -0.8210    2.8360 c3        1 MOL     -0.173568
    109 C39         2.5770   -2.3140    4.8280 c3        1 MOL     -0.054495
    110 H46        -0.2720   -4.1760    1.7690 hn        1 MOL      0.259994
    111 H47         0.9530   -1.8600    0.3560 h1        1 MOL      0.332647
    112 H48         2.4910   -1.5230    2.3000 hc        1 MOL     -0.001339
    113 H49         2.4880   -3.7290    3.3460 hc        1 MOL      0.076640
    114 H50         0.8320   -3.3240    3.9530 hc        1 MOL      0.076640
    115 H51         1.2200   -0.2360    3.5390 hc        1 MOL      0.062651
    116 H52         0.4570   -0.2140    1.9560 hc        1 MOL      0.062651
    117 H53        -0.3250   -1.1430    3.2740 hc        1 MOL      0.062651
    118 H54         2.9780   -3.0170    5.5590 hc        1 MOL      0.019686
    119 H55         3.4250   -1.7620    4.4140 hc        1 MOL      0.019686
    120 H56         1.8690   -1.6620    5.3330 hc        1 MOL      0.019686
    121 N11         2.7580   -2.9240   -0.5220 n         1 MOL     -0.235196
    122 C40         3.8560   -3.6160   -1.1870 c3        1 MOL      0.128836
    123 C41         5.1560   -3.5490   -0.3540 c         1 MOL      0.391112
    124 O16         5.3800   -2.7830    0.5660 o         1 MOL     -0.330745
    125 C42         3.9420   -3.1720   -2.6310 c3        1 MOL     -0.240512
    126 O17         4.7300   -1.9880   -2.6930 oh        1 MOL     -0.236938
    127 H57         2.4750   -2.0120   -0.8520 hn        1 MOL      0.219858
    128 H58         3.5510   -4.6550   -1.2370 h1        1 MOL      0.053126
    129 H59         2.9210   -3.0270   -2.9930 h1        1 MOL      0.120144
    130 H60         4.5090   -3.8690   -3.2330 h1        1 MOL      0.120144
    131 H61         4.8390   -1.7100   -3.5990 ho        1 MOL      0.328798
    132 N12         6.1810   -4.3240   -0.8540 n         1 MOL     -0.435624
    133 C43         7.5660   -4.2100   -0.3280 c3        1 MOL      0.140397
    134 C44         8.2700   -2.9430   -0.7500 c         1 MOL      0.353940
    135 O18         9.3070   -2.5590   -0.1510 o         1 MOL     -0.509002
    136 C45         8.3620   -5.3980   -0.9300 c3        1 MOL     -0.381001
    137 H62         5.9430   -5.1030   -1.4570 hn        1 MOL      0.291149
    138 H63         7.5980   -4.2680    0.7560 h1        1 MOL      0.102894
    139 H64         9.4050   -5.4410   -0.6140 hc        1 MOL      0.117783
    140 H65         8.0160   -6.3480   -0.4990 hc        1 MOL      0.117783
    141 H66         8.1740   -5.4380   -2.0010 hc        1 MOL      0.117783
    142 N13         7.7700   -2.2460   -1.7380 n         1 MOL     -0.178114
    143 C46         8.2190   -0.9050   -2.0410 c3        1 MOL      0.096090
    144 C47         7.4340    0.1610   -1.3300 c         1 MOL      0.377646
    145 O19         7.9120    1.2250   -0.9320 o         1 MOL     -0.531595
    146 C48         8.1160   -0.6260   -3.5760 c3        1 MOL     -0.313330
    147 H67         6.9400   -2.5270   -2.2470 hn        1 MOL      0.171252
    148 H68         9.2370   -0.8280   -1.6510 h1        1 MOL      0.107352
    149 H69         8.6790   -1.3790   -4.1190 hc        1 MOL      0.091487
    150 H70         7.1050   -0.5370   -3.9800 hc        1 MOL      0.091487
    151 H71         8.5130    0.3650   -3.7920 hc        1 MOL      0.091487
    152 N14         6.1330   -0.0110   -1.0220 n         1 MOL      0.054311
    153 C49         5.2580    0.7560   -0.2180 c3        1 MOL      0.038444
    154 C50         5.7330    0.7760    1.2410 c         1 MOL      0.398729
    155 O20         5.8510    1.8550    1.8820 o         1 MOL     -0.537988
    156 C51         3.8640    0.2540   -0.4170 c3        1 MOL     -0.011990
    157 C52         2.8010    1.0510    0.4230 c3        1 MOL     -0.079731
    158 C53         1.3300    0.7790   -0.1320 c         1 MOL      0.798817
    159 O21         0.4400    1.5170    0.1640 o         1 MOL     -0.755794
    160 O22         1.1320   -0.0870   -1.0400 o         1 MOL     -0.755794
    161 H72         5.7620   -0.9210   -1.2730 hn        1 MOL     -0.321928
    162 H73         5.3320    1.8100   -0.4750 h1        1 MOL      0.007126
    163 H74         3.8960   -0.8250   -0.2310 hc        1 MOL     -0.009276
    164 H75         3.6330    0.3770   -1.4690 hc        1 MOL     -0.009276
    165 H76         3.0630    2.0940    0.2590 hc        1 MOL      0.032551
    166 H77         2.8790    0.7800    1.4780 hc        1 MOL      0.032551
    167 N15         6.2180   -0.3490    1.7760 n         1 MOL     -0.080436
    168 C54         6.7330   -0.4810    3.1550 c3        1 MOL     -0.276144
    169 H78         6.7900    0.5050    3.6180 h1        1 MOL      0.112225
    170 H79         6.0630   -1.1150    3.7350 h1        1 MOL      0.112225
    171 H80         7.7260   -0.9280    3.1310 h1        1 MOL      0.112225
    172 H81         6.1040   -1.2100    1.2680 hn        1 MOL      0.161034
    173 Ca1        -1.4600    0.4520   -1.2600 Ca        1 MOL      1.836615
    174 O23        -2.2710    0.1790   -3.9790 oh        1 MOL     -0.916090
    175 H82        -2.6840    1.0330   -4.0640 ho        1 MOL      0.421178
    176 H83        -2.4990   -0.2950   -4.7820 ho        1 MOL      0.421178
    177 O24        -0.4840    2.5700   -2.8450 oh        1 MOL     -0.916090
    178 H84         0.3670    2.6580   -3.2810 ho        1 MOL      0.421178
    179 H85        -1.0440    3.2260   -3.2700 ho        1 MOL      0.421178
    180 O25        -0.6380   -2.0620   -2.5960 oh        1 MOL     -0.916090
    181 H86        -0.9420   -1.7090   -3.4320 ho        1 MOL      0.421178
    182 H87        -0.4070   -2.9690   -2.7950 ho        1 MOL      0.421178
@<TRIPOS>BOND
     1    1    2 1   
     2    1    4 1   
     3    1    5 1   
     4    1    6 1   
     5    2    3 2   
     6    2    7 1   
     7    7    8 1   
     8    7   15 1   
     9    8    9 1   
    10    8   11 1   
    11    8   16 1   
    12    9   10 2   
    13    9   19 1   
    14   11   12 1   
    15   11   17 1   
    16   11   18 1   
    17   12   13 1   
    18   12   14 1   
    19   19   20 1   
    20   19   28 1   
    21   20   21 1   
    22   20   23 1   
    23   20   29 1   
    24   21   22 2   
    25   21   41 1   
    26   23   24 1   
    27   23   30 1   
    28   23   31 1   
    29   24   25 1   
    30   24   32 1   
    31   24   33 1   
    32   25   26 1   
    33   25   34 1   
    34   25   35 1   
    35   26   27 1   
    36   26   36 1   
    37   26   37 1   
    38   27   38 1   
    39   27   39 1   
    40   27   40 1   
    41   41   42 1   
    42   41   49 1   
    43   42   43 1   
    44   42   45 1   
    45   42   50 1   
    46   43   44 2   
    47   43   53 1   
    48   45   46 1   
    49   45   51 1   
    50   45   52 1   
    51   46   47 1   
    52   46   48 1   
    53   53   54 1   
    54   53   57 1   
    55   54   55 1   
    56   54   58 1   
    57   54   59 1   
    58   55   56 2   
    59   55   60 1   
    60   60   61 1   
    61   60   68 1   
    62   61   62 1   
    63   61   64 1   
    64   61   69 1   
    65   62   63 2   
    66   62   74 1   
    67   64   65 1   
    68   64   70 1   
    69   64   71 1   
    70   65   66 1   
    71   65   67 2   
    72   66   72 1   
    73   66   73 1   
    74   74   75 1   
    75   74   78 1   
    76   75   76 1   
    77   75   79 1   
    78   75   80 1   
    79   76   77 2   
    80   76   81 1   
    81   81   82 1   
    82   81   93 1   
    83   82   83 1   
    84   82   85 1   
    85   82   94 1   
    86   83   84 2   
    87   83  102 1   
    88   85   86 1   
    89   85   95 1   
    90   85   96 1   
    91   86   87 ar  
    92   86   88 ar  
    93   87   89 ar  
    94   87   97 1   
    95   88   90 ar  
    96   88   98 1   
    97   89   91 ar  
    98   89   99 1   
    99   90   91 ar  
   100   90  100 1   
   101   91   92 1   
   102   92  101 1   
   103  102  103 1   
   104  102  110 1   
   105  103  104 1   
   106  103  106 1   
   107  103  111 1   
   108  104  105 2   
   109  104  121 1   
   110  106  107 1   
   111  106  108 1   
   112  106  112 1   
   113  107  109 1   
   114  107  113 1   
   115  107  114 1   
   116  108  115 1   
   117  108  116 1   
   118  108  117 1   
   119  109  118 1   
   120  109  119 1   
   121  109  120 1   
   122  121  122 1   
   123  121  127 1   
   124  122  123 1   
   125  122  125 1   
   126  122  128 1   
   127  123  124 2   
   128  123  132 1   
   129  125  126 1   
   130  125  129 1   
   131  125  130 1   
   132  126  131 1   
   133  132  133 1   
   134  132  137 1   
   135  133  134 1   
   136  133  136 1   
   137  133  138 1   
   138  134  135 2   
   139  134  142 1   
   140  136  139 1   
   141  136  140 1   
   142  136  141 1   
   143  142  143 1   
   144  142  147 1   
   145  143  144 1   
   146  143  146 1   
   147  143  148 1   
   148  144  145 2   
   149  144  152 1   
   150  146  149 1   
   151  146  150 1   
   152  146  151 1   
   153  152  153 1   
   154  152  161 1   
   155  153  154 1   
   156  153  156 1   
   157  153  162 1   
   158  154  155 2   
   159  154  167 1   
   160  156  157 1   
   161  156  163 1   
   162  156  164 1   
   163  157  158 1   
   164  157  165 1   
   165  157  166 1   
   166  158  159 1   
   167  158  160 1   
   168  167  168 1   
   169  167  172 1   
   170  168  169 1   
   171  168  170 1   
   172  168  171 1   
   173  174  175 1   
   174  174  176 1   
   175  177  178 1   
   176  177  179 1   
   177  180  181 1   
   178  180  182 1   
@<TRIPOS>SUBSTRUCTURE
     1 MOL         1 TEMP              0 ****  ****    0 ROOT
