@<TRIPOS>MOLECULE
MOL
  175   173     1     0     0
SMALL
resp


@<TRIPOS>ATOM
      1 C1          0.3470    4.0930    5.5100 c3        1 MOL     -0.379879
      2 C2         -0.3190    3.8480    4.1350 c         1 MOL      0.819315
      3 O1          0.3800    3.9940    3.1460 o         1 MOL     -0.596184
      4 H1          1.4180    4.2420    5.3730 hc        1 MOL      0.087992
      5 H2         -0.0860    4.9800    5.9730 hc        1 MOL      0.087992
      6 H3          0.1810    3.2300    6.1540 hc        1 MOL      0.087992
      7 N1         -1.6150    3.5190    4.0000 n         1 MOL     -0.843484
      8 C3         -2.1990    3.2340    2.6980 c3        1 MOL      0.316669
      9 C4         -2.3520    4.4790    1.9020 c         1 MOL      0.497058
     10 O2         -3.0060    5.4170    2.4470 o         1 MOL     -0.594581
     11 C5         -3.6150    2.7670    2.9230 c3        1 MOL     -0.260196
     12 C6         -4.3300    2.3750    1.5840 c         1 MOL      0.631547
     13 O3         -5.5350    2.4390    1.5340 o         1 MOL     -0.609812
     14 O4         -3.5950    1.9530    0.6520 o         1 MOL     -0.609812
     15 H4         -2.2020    3.7800    4.7840 hn        1 MOL      0.361956
     16 H5         -1.6260    2.4240    2.2400 h1        1 MOL      0.096673
     17 H6         -4.2420    3.5150    3.4140 hc        1 MOL      0.048158
     18 H7         -3.7180    1.8800    3.5380 hc        1 MOL      0.048158
     19 N2         -2.0500    4.3870    0.6180 n         1 MOL     -0.448964
     20 C7         -2.3040    5.4330   -0.3100 c3        1 MOL      0.319549
     21 C8         -3.4360    5.0950   -1.3450 c         1 MOL      0.382101
     22 O5         -3.6960    6.0010   -2.1040 o         1 MOL     -0.577536
     23 C9         -0.9580    5.7280   -1.0300 c3        1 MOL     -0.243896
     24 H8         -1.4310    3.6260    0.3790 hn        1 MOL      0.290830
     25 H9         -2.5860    6.3820    0.1380 h1        1 MOL      0.011413
     26 H10        -0.7560    5.0580   -1.8700 hc        1 MOL      0.059414
     27 H11        -0.9140    6.7530   -1.4000 hc        1 MOL      0.059414
     28 H12        -0.1030    5.5660   -0.3840 hc        1 MOL      0.059414
     29 N3         -4.0720    3.9250   -1.4480 n         1 MOL     -0.258086
     30 C10        -4.9430    3.6100   -2.6000 c3        1 MOL      0.066830
     31 C11        -6.1990    2.7850   -2.3580 c         1 MOL      0.353680
     32 O6         -6.9920    2.7700   -3.2890 o         1 MOL     -0.522306
     33 C12        -4.0650    2.9780   -3.7030 c3        1 MOL     -0.065111
     34 C13        -3.0740    1.8380   -3.3450 c         1 MOL      0.763762
     35 O7         -2.2260    1.5230   -4.1930 o         1 MOL     -0.732216
     36 O8         -2.9540    1.3100   -2.2220 o         1 MOL     -0.732216
     37 H13        -3.8200    3.1420   -0.8630 hn        1 MOL      0.177534
     38 H14        -5.4150    4.5240   -2.9580 h1        1 MOL      0.076256
     39 H15        -3.4930    3.7820   -4.1550 hc        1 MOL     -0.000983
     40 H16        -4.6820    2.6460   -4.5370 hc        1 MOL     -0.000983
     41 N4         -6.3600    2.2410   -1.1470 n         1 MOL     -0.145969
     42 C14        -7.4880    1.4560   -0.8250 c3        1 MOL      0.026464
     43 C15        -7.4780    0.0100   -1.2870 c         1 MOL      0.288762
     44 O9         -8.5840   -0.4340   -1.6400 o         1 MOL     -0.553141
     45 H17        -5.6760    2.4630   -0.4370 hn        1 MOL      0.093047
     46 H18        -8.3780    1.9380   -1.2300 h1        1 MOL      0.053423
     47 H19        -7.6770    1.5170    0.2450 h1        1 MOL      0.053423
     48 N5         -6.3050   -0.6080   -1.5550 n         1 MOL     -0.022216
     49 C16        -6.2140   -1.9660   -2.1900 c3        1 MOL      0.055998
     50 C17        -6.0800   -3.1330   -1.1880 c         1 MOL      0.427275
     51 O10        -5.9840   -4.2430   -1.5980 o         1 MOL     -0.508484
     52 C18        -5.1080   -2.0240   -3.3060 c3        1 MOL     -0.259212
     53 C19        -3.7310   -2.2440   -2.6800 c         1 MOL      0.610374
     54 N6         -2.9660   -3.1900   -3.1410 n         1 MOL     -0.541837
     55 O11        -3.3720   -1.5520   -1.7180 o         1 MOL     -0.544089
     56 H20        -5.4400   -0.1650   -1.2700 hn        1 MOL      0.050228
     57 H21        -7.2170   -2.1560   -2.5490 h1        1 MOL      0.092873
     58 H22        -5.0910   -1.1250   -3.9200 hc        1 MOL      0.068985
     59 H23        -5.2660   -2.9220   -3.9050 hc        1 MOL      0.068985
     60 H24        -3.3280   -3.8020   -3.8490 hn        1 MOL      0.306604
     61 H25        -2.0240   -3.2110   -2.7940 hn        1 MOL      0.306604
     62 N7         -6.1320   -2.8610    0.1130 n         1 MOL     -0.272905
     63 C20        -6.3240   -3.8380    1.1640 c3        1 MOL     -0.209337
     64 C21        -5.0340   -4.4350    1.7380 c         1 MOL      0.463402
     65 O12        -5.1140   -5.2490    2.7130 o         1 MOL     -0.597827
     66 H26        -6.1030   -1.8990    0.4200 hn        1 MOL      0.209874
     67 H27        -6.9340   -4.7090    0.9100 h1        1 MOL      0.124822
     68 H28        -6.7930   -3.3350    2.0130 h1        1 MOL      0.124822
     69 N8         -3.8630   -4.1080    1.1880 n         1 MOL     -0.092110
     70 C22        -2.5750   -4.5180    1.6540 c3        1 MOL     -0.046826
     71 C23        -1.5650   -3.4320    1.5750 c         1 MOL      0.376948
     72 O13        -1.7500   -2.3470    1.0030 o         1 MOL     -0.528778
     73 C24        -2.0980   -5.5950    0.6920 c3        1 MOL      0.492749
     74 C25        -2.8610   -6.8720    0.8730 c3        1 MOL     -0.484229
     75 O14        -2.2060   -5.1420   -0.6490 oh        1 MOL     -0.635211
     76 H29        -3.9090   -3.4100    0.4550 hn        1 MOL      0.097344
     77 H30        -2.6790   -4.8820    2.6820 h1        1 MOL      0.074906
     78 H31        -1.0560   -5.7820    0.9600 h1        1 MOL     -0.053224
     79 H32        -1.6770   -4.3500   -0.7550 ho        1 MOL      0.407437
     80 H33        -2.5460   -7.6380    0.1600 hc        1 MOL      0.124888
     81 H34        -2.7240   -7.2180    1.8940 hc        1 MOL      0.124888
     82 H35        -3.9200   -6.8280    0.6210 hc        1 MOL      0.124888
     83 N9         -0.3840   -3.6500    2.1930 n         1 MOL     -0.386864
     84 C26         0.8290   -2.8090    2.0200 c3        1 MOL      0.124426
     85 C27         1.4610   -3.2230    0.6550 c         1 MOL      0.459629
     86 O15         1.6600   -4.4660    0.4550 o         1 MOL     -0.600124
     87 C28         1.7940   -2.8850    3.2820 c3        1 MOL      0.112526
     88 C29         1.2960   -1.7890    4.2250 c3        1 MOL      0.122210
     89 C30         3.2340   -2.6660    2.8740 c3        1 MOL     -0.270891
     90 C31         2.0570   -1.7200    5.5290 c3        1 MOL     -0.164992
     91 H36        -0.3290   -4.4810    2.7590 hn        1 MOL      0.250480
     92 H37         0.5130   -1.7790    1.8470 h1        1 MOL     -0.144594
     93 H38         1.6030   -3.8660    3.7260 hc        1 MOL      0.009251
     94 H39         0.2520   -2.0160    4.4580 hc        1 MOL     -0.028852
     95 H40         1.4760   -0.8150    3.7770 hc        1 MOL     -0.028852
     96 H41         3.8780   -2.7310    3.7510 hc        1 MOL      0.047011
     97 H42         3.3440   -3.5270    2.2140 hc        1 MOL      0.047011
     98 H43         3.3790   -1.8080    2.2110 hc        1 MOL      0.047011
     99 H44         2.9950   -1.2420    5.2550 hc        1 MOL      0.029293
    100 H45         1.5300   -1.0600    6.2170 hc        1 MOL      0.029293
    101 H46         2.1550   -2.7160    5.9620 hc        1 MOL      0.029293
    102 N10         1.8160   -2.2550   -0.1230 n         1 MOL     -0.072446
    103 C32         2.6410   -2.2500   -1.3000 c3        1 MOL      0.000390
    104 C33         4.0070   -1.5710   -1.0010 c         1 MOL      0.362543
    105 O16         4.2270   -0.8360   -0.0790 o         1 MOL     -0.258106
    106 C34         1.9160   -1.5730   -2.4650 c3        1 MOL     -0.236656
    107 C35         0.3920   -1.8050   -2.3220 c         1 MOL      0.738367
    108 O17        -0.2500   -1.0990   -1.4640 o         1 MOL     -0.683329
    109 O18        -0.2270   -2.6440   -2.9750 o         1 MOL     -0.683329
    110 H47         1.3480   -1.3880    0.0970 hn        1 MOL      0.184405
    111 H48         2.8150   -3.2630   -1.6590 h1        1 MOL      0.065242
    112 H49         2.4070   -1.8240   -3.4020 hc        1 MOL      0.071889
    113 H50         2.0910   -0.4970   -2.4560 hc        1 MOL      0.071889
    114 N11         4.9910   -1.7870   -1.8630 n         1 MOL     -0.581944
    115 C36         6.4020   -1.5270   -1.5560 c3        1 MOL      0.347553
    116 C37         6.6830   -0.0140   -0.9880 c         1 MOL      0.362682
    117 O19         7.3660    0.0960    0.0200 o         1 MOL     -0.530382
    118 C38         7.2740   -1.7880   -2.8120 c3        1 MOL     -0.197997
    119 C39         8.8310   -1.4440   -2.5900 ca        1 MOL      0.147411
    120 C40         9.5650   -1.9830   -1.4860 ca        1 MOL     -0.248961
    121 C41         9.4850   -0.5490   -3.4600 ca        1 MOL     -0.248961
    122 C42        10.9320   -1.5840   -1.3030 ca        1 MOL     -0.026320
    123 C43        10.8150   -0.0640   -3.1940 ca        1 MOL     -0.026320
    124 C44        11.5270   -0.6430   -2.1520 ca        1 MOL     -0.183521
    125 H51         4.8990   -2.4480   -2.6190 hn        1 MOL      0.321398
    126 H52         6.7620   -2.2490   -0.8240 h1        1 MOL      0.024624
    127 H53         6.8440   -1.1280   -3.5580 hc        1 MOL      0.047602
    128 H54         7.1650   -2.8520   -3.0190 hc        1 MOL      0.047602
    129 H55         9.1170   -2.5920   -0.7230 ha        1 MOL      0.139242
    130 H56         9.0090   -0.1140   -4.3290 ha        1 MOL      0.139242
    131 H57        11.5780   -1.9830   -0.5310 ha        1 MOL      0.094012
    132 H58        11.2710    0.6760   -3.8380 ha        1 MOL      0.094012
    133 H59        12.5420   -0.3470   -1.9490 ha        1 MOL      0.113245
    134 N12         6.2770    1.0470   -1.6420 n         1 MOL      0.039286
    135 C45         6.5740    2.4010   -1.0990 c3        1 MOL     -0.061975
    136 C46         5.7950    2.7050    0.2120 c         1 MOL      0.402726
    137 O20         6.0750    3.6790    0.9630 o         1 MOL     -0.554604
    138 C47         6.3740    3.3290   -2.2410 c3        1 MOL     -0.156188
    139 C48         5.3790    2.5740   -3.1280 c3        1 MOL      0.120719
    140 C49         5.7310    1.1230   -3.0150 c3        1 MOL     -0.157942
    141 H60         7.6060    2.4080   -0.7610 h1        1 MOL      0.089031
    142 H61         5.8850    4.2440   -1.9230 hc        1 MOL      0.061362
    143 H62         7.3310    3.4910   -2.7410 hc        1 MOL      0.061362
    144 H63         4.3570    2.7580   -2.7910 hc        1 MOL      0.010347
    145 H64         5.4760    2.9700   -4.1380 hc        1 MOL      0.010347
    146 H65         4.8010    0.5460   -3.0260 h1        1 MOL      0.054429
    147 H66         6.4940    0.8500   -3.7460 h1        1 MOL      0.054429
    148 N13         4.9240    1.8440    0.5860 n         1 MOL     -0.112854
    149 C50         4.2880    1.8240    1.9290 c3        1 MOL     -0.284193
    150 C51         5.0630    0.9980    2.9840 c         1 MOL      0.561867
    151 O21         4.9930    1.2960    4.1730 o         1 MOL     -0.569258
    152 C52         2.8710    1.2950    1.8340 c3        1 MOL     -0.018923
    153 C53         1.9940    1.9220    0.6460 c3        1 MOL     -0.158043
    154 C54         0.5200    1.4140    0.6040 c         1 MOL      0.597786
    155 O22         0.0880    0.5820    1.3740 o         1 MOL     -0.728655
    156 O23        -0.2820    1.8850   -0.2580 o         1 MOL     -0.728655
    157 H67         4.7010    1.0330    0.0260 hn        1 MOL      0.121196
    158 H68         4.2530    2.8630    2.2640 h1        1 MOL      0.157794
    159 H69         2.4880    1.5850    2.8110 hc        1 MOL      0.100319
    160 H70         2.8100    0.2070    1.8360 hc        1 MOL      0.100319
    161 H71         2.4980    1.9310   -0.3200 hc        1 MOL      0.086589
    162 H72         1.9130    2.9510    1.0070 hc        1 MOL      0.086589
    163 N14         5.7870   -0.0460    2.5830 n         1 MOL     -0.082633
    164 C55         6.8150   -0.6920    3.4330 c3        1 MOL     -0.215012
    165 H73         7.6840   -0.0390    3.5100 h1        1 MOL      0.086250
    166 H74         6.4060   -0.8710    4.4270 h1        1 MOL      0.086250
    167 H75         7.1120   -1.6410    2.9860 h1        1 MOL      0.086250
    168 H76         5.6070   -0.3840    1.6430 hn        1 MOL      0.067802
    169 Ca1        -2.0880    0.0560   -0.0340 Ca        1 MOL      1.690498
    170 O24        -4.6140   -0.7060    1.0830 oh        1 MOL     -0.694099
    171 H77        -4.9780    0.1550    1.2870 ho        1 MOL      0.356041
    172 H78        -4.8010   -1.2310    1.8680 ho        1 MOL      0.356041
    173 O25        -2.0100   -0.2210    2.8840 oh        1 MOL     -0.694099
    174 H79        -2.2480   -0.1740    3.8080 ho        1 MOL      0.356041
    175 H80        -1.0700   -0.0390    2.8680 ho        1 MOL      0.356041
@<TRIPOS>BOND
     1    1    2 1   
     2    1    4 1   
     3    1    5 1   
     4    1    6 1   
     5    2    3 2   
     6    2    7 1   
     7    7    8 1   
     8    7   15 1   
     9    8    9 1   
    10    8   11 1   
    11    8   16 1   
    12    9   10 2   
    13    9   19 1   
    14   11   12 1   
    15   11   17 1   
    16   11   18 1   
    17   12   13 1   
    18   12   14 1   
    19   19   20 1   
    20   19   24 1   
    21   20   21 1   
    22   20   23 1   
    23   20   25 1   
    24   21   22 2   
    25   21   29 1   
    26   23   26 1   
    27   23   27 1   
    28   23   28 1   
    29   29   30 1   
    30   29   37 1   
    31   30   31 1   
    32   30   33 1   
    33   30   38 1   
    34   31   32 2   
    35   31   41 1   
    36   33   34 1   
    37   33   39 1   
    38   33   40 1   
    39   34   35 1   
    40   34   36 1   
    41   41   42 1   
    42   41   45 1   
    43   42   43 1   
    44   42   46 1   
    45   42   47 1   
    46   43   44 2   
    47   43   48 1   
    48   48   49 1   
    49   48   56 1   
    50   49   50 1   
    51   49   52 1   
    52   49   57 1   
    53   50   51 2   
    54   50   62 1   
    55   52   53 1   
    56   52   58 1   
    57   52   59 1   
    58   53   54 1   
    59   53   55 2   
    60   54   60 1   
    61   54   61 1   
    62   62   63 1   
    63   62   66 1   
    64   63   64 1   
    65   63   67 1   
    66   63   68 1   
    67   64   65 2   
    68   64   69 1   
    69   69   70 1   
    70   69   76 1   
    71   70   71 1   
    72   70   73 1   
    73   70   77 1   
    74   71   72 2   
    75   71   83 1   
    76   73   74 1   
    77   73   75 1   
    78   73   78 1   
    79   74   80 1   
    80   74   81 1   
    81   74   82 1   
    82   75   79 1   
    83   83   84 1   
    84   83   91 1   
    85   84   85 1   
    86   84   87 1   
    87   84   92 1   
    88   85   86 2   
    89   85  102 1   
    90   87   88 1   
    91   87   89 1   
    92   87   93 1   
    93   88   90 1   
    94   88   94 1   
    95   88   95 1   
    96   89   96 1   
    97   89   97 1   
    98   89   98 1   
    99   90   99 1   
   100   90  100 1   
   101   90  101 1   
   102  102  103 1   
   103  102  110 1   
   104  103  104 1   
   105  103  106 1   
   106  103  111 1   
   107  104  105 2   
   108  104  114 1   
   109  106  107 1   
   110  106  112 1   
   111  106  113 1   
   112  107  108 1   
   113  107  109 1   
   114  114  115 1   
   115  114  125 1   
   116  115  116 1   
   117  115  118 1   
   118  115  126 1   
   119  116  117 2   
   120  116  134 1   
   121  118  119 1   
   122  118  127 1   
   123  118  128 1   
   124  119  120 ar  
   125  119  121 ar  
   126  120  122 ar  
   127  120  129 1   
   128  121  123 ar  
   129  121  130 1   
   130  122  124 ar  
   131  122  131 1   
   132  123  124 ar  
   133  123  132 1   
   134  124  133 1   
   135  134  135 1   
   136  134  140 1   
   137  135  136 1   
   138  135  138 1   
   139  135  141 1   
   140  136  137 2   
   141  136  148 1   
   142  138  139 1   
   143  138  142 1   
   144  138  143 1   
   145  139  140 1   
   146  139  144 1   
   147  139  145 1   
   148  140  146 1   
   149  140  147 1   
   150  148  149 1   
   151  148  157 1   
   152  149  150 1   
   153  149  152 1   
   154  149  158 1   
   155  150  151 2   
   156  150  163 1   
   157  152  153 1   
   158  152  159 1   
   159  152  160 1   
   160  153  154 1   
   161  153  161 1   
   162  153  162 1   
   163  154  155 1   
   164  154  156 1   
   165  163  164 1   
   166  163  168 1   
   167  164  165 1   
   168  164  166 1   
   169  164  167 1   
   170  170  171 1   
   171  170  172 1   
   172  173  174 1   
   173  173  175 1   
@<TRIPOS>SUBSTRUCTURE
     1 MOL         1 TEMP              0 ****  ****    0 ROOT
