@<TRIPOS>MOLECULE
MOL
  189   185     1     0     0
SMALL
resp


@<TRIPOS>ATOM
      1 C1         -0.0610   -4.8930    5.1050 c3        1 MOL     -0.368965
      2 C2          0.7870   -4.4110    3.8340 c         1 MOL      0.654685
      3 O1          0.2940   -4.6100    2.6710 o         1 MOL     -0.555330
      4 H1         -0.7520   -4.1030    5.4000 hc        1 MOL      0.093040
      5 H2         -0.6240   -5.7900    4.8480 hc        1 MOL      0.093040
      6 H3          0.6140   -5.1120    5.9320 hc        1 MOL      0.093040
      7 N1          2.0660   -3.9980    3.9710 n         1 MOL     -0.635945
      8 C3          2.7330   -3.4770    2.8280 c3        1 MOL      0.414647
      9 C4          3.1860   -4.5180    1.8590 c         1 MOL      0.543326
     10 O2          3.9170   -5.4210    2.2950 o         1 MOL     -0.586573
     11 C5          3.8860   -2.6660    3.3970 c3        1 MOL     -0.605831
     12 C6          4.6520   -1.7110    2.4430 c         1 MOL      1.055264
     13 O3          5.6200   -1.0800    2.8770 o         1 MOL     -0.759697
     14 O4          4.3210   -1.6050    1.2750 o         1 MOL     -0.759697
     15 H4          2.4840   -3.9940    4.8870 hn        1 MOL      0.346687
     16 H5          1.9820   -2.9420    2.2500 h1        1 MOL     -0.040320
     17 H6          4.5640   -3.3100    3.9630 hc        1 MOL      0.111530
     18 H7          3.4790   -1.9950    4.1490 hc        1 MOL      0.111530
     19 N2          2.7650   -4.5050    0.5470 n         1 MOL     -0.471599
     20 C7          3.2360   -5.4680   -0.4790 c3        1 MOL      0.134498
     21 C8          4.1810   -4.9540   -1.5830 c         1 MOL      0.402561
     22 O5          4.4540   -5.6500   -2.5370 o         1 MOL     -0.513874
     23 C9          2.0230   -6.3000   -0.9510 c3        1 MOL      0.241466
     24 C10         2.1530   -7.6400   -1.6870 c3        1 MOL     -0.110501
     25 C11         1.2120   -5.4330   -1.8330 c3        1 MOL     -0.293247
     26 C12         3.2880   -8.5380   -1.0640 c3        1 MOL     -0.060244
     27 H8          2.1890   -3.6920    0.3550 hn        1 MOL      0.236848
     28 H9          3.9740   -6.1210   -0.0160 h1        1 MOL      0.034963
     29 H10         1.3650   -6.4820   -0.1000 hc        1 MOL      0.019708
     30 H11         2.4340   -7.5240   -2.7340 hc        1 MOL      0.021442
     31 H12         1.1930   -8.1500   -1.6240 hc        1 MOL      0.021442
     32 H13         0.2460   -5.7910   -2.1810 hc        1 MOL      0.067144
     33 H14         0.8490   -4.5790   -1.2610 hc        1 MOL      0.067144
     34 H15         1.8150   -5.0090   -2.6450 hc        1 MOL      0.067144
     35 H16         3.1750   -8.3780    0.0080 hc        1 MOL     -0.002359
     36 H17         3.1080   -9.5650   -1.3680 hc        1 MOL     -0.002359
     37 H18         4.2850   -8.2950   -1.4260 hc        1 MOL     -0.002359
     38 N3          4.5780   -3.6410   -1.5540 n         1 MOL     -0.285958
     39 C13         5.4750   -3.0250   -2.5350 c3        1 MOL      0.039590
     40 C14         6.6660   -2.1770   -1.9300 c         1 MOL      0.343106
     41 O6          7.6930   -1.9520   -2.6220 o         1 MOL     -0.526513
     42 C15         4.6410   -2.1220   -3.4800 c3        1 MOL      0.000148
     43 C16         3.5360   -1.2810   -2.8260 c         1 MOL      0.610756
     44 O7          3.8060   -0.8640   -1.6680 o         1 MOL     -0.650820
     45 O8          2.5100   -1.0030   -3.4660 o         1 MOL     -0.650820
     46 H19         4.3130   -3.0900   -0.7500 hn        1 MOL      0.221819
     47 H20         5.8790   -3.7950   -3.1940 h1        1 MOL      0.068692
     48 H21         4.2120   -2.7900   -4.2210 hc        1 MOL     -0.003975
     49 H22         5.3480   -1.4960   -4.0380 hc        1 MOL     -0.003975
     50 N4          6.5780   -1.8290   -0.6200 n         1 MOL     -0.237092
     51 C17         7.5400   -0.8400   -0.0870 c3        1 MOL     -0.109745
     52 C18         7.5160    0.5870   -0.6770 c         1 MOL      0.442888
     53 O9          8.4940    1.3170   -0.4170 o         1 MOL     -0.616233
     54 H23         5.8110   -2.1230   -0.0420 hn        1 MOL      0.146186
     55 H24         8.5280   -1.3040   -0.1940 h1        1 MOL      0.089549
     56 H25         7.3310   -0.8290    0.9820 h1        1 MOL      0.089549
     57 N5          6.4450    1.0010   -1.3140 n         1 MOL     -0.090742
     58 C19         6.4290    2.2740   -2.0600 c3        1 MOL     -0.031907
     59 C20         6.4440    3.5700   -1.2630 c         1 MOL      0.414613
     60 O10         6.6670    4.6390   -1.8430 o         1 MOL     -0.564138
     61 C21         5.2190    2.3040   -2.9770 c3        1 MOL     -0.255297
     62 C22         3.8300    2.3020   -2.3030 c         1 MOL      0.771233
     63 O11         3.6930    2.2130   -1.0750 o         1 MOL     -0.701044
     64 O12         2.8740    2.5440   -3.0600 o         1 MOL     -0.701044
     65 H26         5.7090    0.3190   -1.4500 hn        1 MOL      0.148586
     66 H27         7.2590    2.2780   -2.7730 h1        1 MOL      0.087288
     67 H28         5.2120    1.3970   -3.5870 hc        1 MOL      0.071381
     68 H29         5.3550    3.1050   -3.6970 hc        1 MOL      0.071381
     69 N6          6.3600    3.4920    0.0480 n         1 MOL     -0.129266
     70 C23         6.3050    4.6660    0.8950 c3        1 MOL     -0.178469
     71 C24         4.9120    5.1300    1.2550 c         1 MOL      0.535766
     72 O13         4.7400    6.0770    2.0750 o         1 MOL     -0.611774
     73 H30         6.1690    2.5850    0.4460 hn        1 MOL      0.201670
     74 H31         7.0620    5.3930    0.6070 h1        1 MOL      0.093527
     75 H32         6.7070    4.2890    1.8350 h1        1 MOL      0.093527
     76 N7          3.8170    4.5270    0.7880 n         1 MOL     -0.378503
     77 C25         2.4520    4.9140    1.1430 c3        1 MOL      0.209713
     78 C26         1.5430    3.7040    1.5890 c         1 MOL      0.259759
     79 O14         1.9520    2.5420    1.3780 o         1 MOL     -0.460252
     80 C27         1.8420    5.7070    0.0110 c3        1 MOL     -0.018532
     81 C28         2.3470    7.1270   -0.1070 c3        1 MOL     -0.400823
     82 C29         1.4100    7.9780   -0.9430 c         1 MOL      0.758500
     83 N8          1.0330    7.5090   -2.1540 n         1 MOL     -0.822945
     84 O15         1.0980    9.0720   -0.6100 o         1 MOL     -0.580811
     85 H33         3.9920    3.7860    0.1320 hn        1 MOL      0.283642
     86 H34         2.4890    5.6010    2.0000 h1        1 MOL      0.032063
     87 H35         0.7660    5.8180    0.1720 hc        1 MOL      0.044683
     88 H36         2.0080    5.1570   -0.9190 hc        1 MOL      0.044683
     89 H37         3.3710    7.2320   -0.4860 hc        1 MOL      0.124874
     90 H38         2.4250    7.5950    0.8740 hc        1 MOL      0.124874
     91 H39         1.5510    6.7290   -2.5280 hn        1 MOL      0.349502
     92 H40         0.7630    8.1450   -2.8980 hn        1 MOL      0.349502
     93 N9          0.3880    3.8990    2.2050 n         1 MOL     -0.296078
     94 C30        -0.6890    2.8780    2.2530 c3        1 MOL      0.059538
     95 C31        -1.6340    3.1960    1.0790 c         1 MOL      0.483716
     96 O16        -2.1770    4.2770    0.9620 o         1 MOL     -0.565931
     97 C32        -1.4190    3.0030    3.6760 c3        1 MOL      0.183810
     98 C33        -2.6340    2.0730    3.8420 c3        1 MOL     -0.197233
     99 C34        -0.4870    2.6320    4.7610 c3        1 MOL     -0.197233
    100 H41         0.1340    4.8320    2.4990 hn        1 MOL      0.237493
    101 H42        -0.3450    1.8510    2.1470 h1        1 MOL      0.009286
    102 H43        -1.7200    4.0510    3.7640 hc        1 MOL     -0.016175
    103 H44        -3.1650    2.2720    4.7730 hc        1 MOL      0.037132
    104 H45        -3.3820    2.1930    3.0620 hc        1 MOL      0.037132
    105 H46        -2.2330    1.0600    3.7730 hc        1 MOL      0.037132
    106 H47        -0.0260    1.6490    4.6000 hc        1 MOL      0.037132
    107 H48         0.3640    3.3130    4.8400 hc        1 MOL      0.037132
    108 H49        -0.8950    2.5580    5.7710 hc        1 MOL      0.037132
    109 N10        -1.9270    2.1880    0.2530 n         1 MOL     -0.305553
    110 C35        -3.0110    2.2310   -0.7240 c3        1 MOL      0.019524
    111 C36        -4.2700    1.7790   -0.0020 c         1 MOL      0.324165
    112 O17        -4.2170    0.9810    0.9600 o         1 MOL     -0.302328
    113 C37        -2.6450    1.2260   -1.8210 c3        1 MOL     -0.225206
    114 C38        -3.4100    1.4830   -3.1260 c         1 MOL      0.754485
    115 N11        -2.8830    2.2040   -4.0780 n         1 MOL     -0.783217
    116 O18        -4.5610    1.0630   -3.2290 o         1 MOL     -0.613176
    117 H50        -1.5920    1.3100    0.6350 hn        1 MOL      0.309278
    118 H51        -3.0710    3.2610   -1.0810 h1        1 MOL      0.085310
    119 H52        -2.7880    0.2150   -1.4410 hc        1 MOL      0.088842
    120 H53        -1.6150    1.3900   -2.1430 hc        1 MOL      0.088842
    121 H54        -1.9360    2.5310   -3.9810 hn        1 MOL      0.377222
    122 H55        -3.4990    2.3820   -4.8550 hn        1 MOL      0.377222
    123 N12        -5.4170    2.1830   -0.5840 n         1 MOL     -0.388322
    124 C39        -6.7490    1.7010   -0.1770 c3        1 MOL      0.241647
    125 C40        -6.7890    0.1750   -0.0210 c         1 MOL      0.532290
    126 O19        -7.3580   -0.3300    0.9340 o         1 MOL     -0.564765
    127 C41        -7.7950    2.1030   -1.1990 c3        1 MOL     -0.403719
    128 C42        -9.1610    1.5560   -0.8790 ca        1 MOL      0.222806
    129 C43        -9.9860    2.2930   -0.0330 ca        1 MOL     -0.281761
    130 C44        -9.6680    0.4500   -1.6000 ca        1 MOL     -0.281761
    131 C45       -11.3270    1.8760    0.1790 ca        1 MOL     -0.153154
    132 C46       -10.9220   -0.0690   -1.2860 ca        1 MOL     -0.153154
    133 C47       -11.8040    0.6710   -0.4670 ca        1 MOL      0.234590
    134 O20       -13.0290    0.2000   -0.2380 oh        1 MOL     -0.504479
    135 H56        -5.3690    2.7170   -1.4430 hn        1 MOL      0.253747
    136 H57        -7.0110    2.1540    0.7800 h1        1 MOL      0.038556
    137 H58        -7.5310    1.8240   -2.2180 hc        1 MOL      0.119649
    138 H59        -7.8100    3.1650   -0.9430 hc        1 MOL      0.119649
    139 H60        -9.6740    3.2490    0.3380 ha        1 MOL      0.162962
    140 H61        -9.0730   -0.1270   -2.2890 ha        1 MOL      0.162962
    141 H62       -11.9330    2.4400    0.8710 ha        1 MOL      0.120414
    142 H63       -11.3110   -0.9490   -1.7730 ha        1 MOL      0.120414
    143 H64       -13.2110   -0.5320   -0.8370 ho        1 MOL      0.384715
    144 N13        -6.1770   -0.6320   -0.8730 n         1 MOL     -0.168560
    145 C48        -6.0990   -2.1250   -0.8930 c3        1 MOL     -0.109482
    146 C49        -5.3370   -2.5810    0.3560 c         1 MOL      0.326850
    147 O21        -5.6720   -3.6540    0.8400 o         1 MOL     -0.512297
    148 C50        -5.3740   -2.5580   -2.1780 c3        1 MOL      0.173408
    149 C51        -6.1140   -2.1020   -3.4480 c3        1 MOL     -0.372868
    150 C52        -5.4000   -2.6440   -4.7630 c         1 MOL      0.700503
    151 O22        -5.4120   -3.8890   -5.0210 o         1 MOL     -0.718146
    152 O23        -4.8130   -1.8960   -5.6000 o         1 MOL     -0.718146
    153 H65        -5.7930   -0.2260   -1.7200 hn        1 MOL      0.163498
    154 H66        -7.1030   -2.5440   -0.8520 h1        1 MOL      0.110215
    155 H67        -5.3270   -3.6440   -2.2480 hc        1 MOL      0.005540
    156 H68        -4.3530   -2.1860   -2.1980 hc        1 MOL      0.005540
    157 H69        -6.1160   -1.0120   -3.5450 hc        1 MOL      0.063861
    158 H70        -7.1220   -2.5140   -3.3570 hc        1 MOL      0.063861
    159 N14        -4.4050   -1.7890    0.9120 n         1 MOL     -0.025583
    160 C53        -3.5500   -2.2310    2.0400 c3        1 MOL     -0.013565
    161 C54        -4.3380   -1.8290    3.3360 c         1 MOL      0.397496
    162 O24        -4.4320   -2.5810    4.2730 o         1 MOL     -0.565847
    163 C55        -2.2090   -1.4930    1.8490 c3        1 MOL      0.071092
    164 C56        -1.2390   -2.2710    0.9380 c3        1 MOL     -0.197001
    165 C57         0.0980   -1.4850    0.7040 c         1 MOL      0.813044
    166 O25         1.0060   -1.9830    0.0260 o         1 MOL     -0.729023
    167 O26         0.3150   -0.3440    1.0890 o         1 MOL     -0.729023
    168 H71        -4.2310   -0.8500    0.5990 hn        1 MOL     -0.055695
    169 H72        -3.4680   -3.3120    1.9200 h1        1 MOL      0.098654
    170 H73        -1.7520   -1.3720    2.8250 hc        1 MOL     -0.026941
    171 H74        -2.2800   -0.4590    1.5040 hc        1 MOL     -0.026941
    172 H75        -1.6410   -2.3470   -0.0760 hc        1 MOL      0.064842
    173 H76        -1.1220   -3.2780    1.3380 hc        1 MOL      0.064842
    174 N15        -5.1190   -0.7800    3.2900 n         1 MOL      0.072289
    175 C58        -6.0450   -0.3380    4.3500 c3        1 MOL     -0.252068
    176 H77        -6.2130    0.7350    4.2610 h1        1 MOL      0.085303
    177 H78        -6.9940   -0.8640    4.2460 h1        1 MOL      0.085303
    178 H79        -5.6130   -0.5580    5.3250 h1        1 MOL      0.085303
    179 H80        -5.1110   -0.2540    2.4220 hn        1 MOL     -0.008588
    180 Ca1         2.8030    0.2120    0.3800 Ca        1 MOL      1.697398
    181 O27         2.2130    0.0800    2.9090 oh        1 MOL     -0.902885
    182 H81         1.3010   -0.0320    2.6150 ho        1 MOL      0.418714
    183 H82         2.1400    0.5060    3.7560 ho        1 MOL      0.418714
    184 O28         0.9150    1.0200   -1.5010 oh        1 MOL     -0.902885
    185 H83         1.4550    1.4160   -2.1850 ho        1 MOL      0.418714
    186 H84         0.3440    0.4190   -1.9770 ho        1 MOL      0.418714
    187 O29         5.0380    1.1820    1.5900 oh        1 MOL     -0.902885
    188 H85         5.0740    1.8050    2.3180 ho        1 MOL      0.418714
    189 H86         5.3670    0.3640    1.9470 ho        1 MOL      0.418714
@<TRIPOS>BOND
     1    1    2 1   
     2    1    4 1   
     3    1    5 1   
     4    1    6 1   
     5    2    3 2   
     6    2    7 1   
     7    7    8 1   
     8    7   15 1   
     9    8    9 1   
    10    8   11 1   
    11    8   16 1   
    12    9   10 2   
    13    9   19 1   
    14   11   12 1   
    15   11   17 1   
    16   11   18 1   
    17   12   13 1   
    18   12   14 1   
    19   19   20 1   
    20   19   27 1   
    21   20   21 1   
    22   20   23 1   
    23   20   28 1   
    24   21   22 2   
    25   21   38 1   
    26   23   24 1   
    27   23   25 1   
    28   23   29 1   
    29   24   26 1   
    30   24   30 1   
    31   24   31 1   
    32   25   32 1   
    33   25   33 1   
    34   25   34 1   
    35   26   35 1   
    36   26   36 1   
    37   26   37 1   
    38   38   39 1   
    39   38   46 1   
    40   39   40 1   
    41   39   42 1   
    42   39   47 1   
    43   40   41 2   
    44   40   50 1   
    45   42   43 1   
    46   42   48 1   
    47   42   49 1   
    48   43   44 1   
    49   43   45 1   
    50   50   51 1   
    51   50   54 1   
    52   51   52 1   
    53   51   55 1   
    54   51   56 1   
    55   52   53 2   
    56   52   57 1   
    57   57   58 1   
    58   57   65 1   
    59   58   59 1   
    60   58   61 1   
    61   58   66 1   
    62   59   60 2   
    63   59   69 1   
    64   61   62 1   
    65   61   67 1   
    66   61   68 1   
    67   62   63 1   
    68   62   64 1   
    69   69   70 1   
    70   69   73 1   
    71   70   71 1   
    72   70   74 1   
    73   70   75 1   
    74   71   72 2   
    75   71   76 1   
    76   76   77 1   
    77   76   85 1   
    78   77   78 1   
    79   77   80 1   
    80   77   86 1   
    81   78   79 2   
    82   78   93 1   
    83   80   81 1   
    84   80   87 1   
    85   80   88 1   
    86   81   82 1   
    87   81   89 1   
    88   81   90 1   
    89   82   83 1   
    90   82   84 2   
    91   83   91 1   
    92   83   92 1   
    93   93   94 1   
    94   93  100 1   
    95   94   95 1   
    96   94   97 1   
    97   94  101 1   
    98   95   96 2   
    99   95  109 1   
   100   97   98 1   
   101   97   99 1   
   102   97  102 1   
   103   98  103 1   
   104   98  104 1   
   105   98  105 1   
   106   99  106 1   
   107   99  107 1   
   108   99  108 1   
   109  109  110 1   
   110  109  117 1   
   111  110  111 1   
   112  110  113 1   
   113  110  118 1   
   114  111  112 2   
   115  111  123 1   
   116  113  114 1   
   117  113  119 1   
   118  113  120 1   
   119  114  115 1   
   120  114  116 2   
   121  115  121 1   
   122  115  122 1   
   123  123  124 1   
   124  123  135 1   
   125  124  125 1   
   126  124  127 1   
   127  124  136 1   
   128  125  126 2   
   129  125  144 1   
   130  127  128 1   
   131  127  137 1   
   132  127  138 1   
   133  128  129 ar  
   134  128  130 ar  
   135  129  131 ar  
   136  129  139 1   
   137  130  132 ar  
   138  130  140 1   
   139  131  133 ar  
   140  131  141 1   
   141  132  133 ar  
   142  132  142 1   
   143  133  134 1   
   144  134  143 1   
   145  144  145 1   
   146  144  153 1   
   147  145  146 1   
   148  145  148 1   
   149  145  154 1   
   150  146  147 2   
   151  146  159 1   
   152  148  149 1   
   153  148  155 1   
   154  148  156 1   
   155  149  150 1   
   156  149  157 1   
   157  149  158 1   
   158  150  151 1   
   159  150  152 1   
   160  159  160 1   
   161  159  168 1   
   162  160  161 1   
   163  160  163 1   
   164  160  169 1   
   165  161  162 2   
   166  161  174 1   
   167  163  164 1   
   168  163  170 1   
   169  163  171 1   
   170  164  165 1   
   171  164  172 1   
   172  164  173 1   
   173  165  166 1   
   174  165  167 1   
   175  174  175 1   
   176  174  179 1   
   177  175  176 1   
   178  175  177 1   
   179  175  178 1   
   180  181  182 1   
   181  181  183 1   
   182  184  185 1   
   183  184  186 1   
   184  187  188 1   
   185  187  189 1   
@<TRIPOS>SUBSTRUCTURE
     1 MOL         1 TEMP              0 ****  ****    0 ROOT
