@<TRIPOS>MOLECULE
MOL
  179   176     1     0     0
SMALL
resp


@<TRIPOS>ATOM
      1 C1         -2.2170   -2.1800    5.4070 c3        1 MOL     -0.353798
      2 C2         -1.4100   -2.3210    4.1340 c         1 MOL      0.761432
      3 O1         -1.9230   -2.6570    3.0840 o         1 MOL     -0.633572
      4 H1         -1.6250   -2.5310    6.2530 hc        1 MOL      0.089405
      5 H2         -2.4810   -1.1330    5.5570 hc        1 MOL      0.089405
      6 H3         -3.1260   -2.7770    5.3290 hc        1 MOL      0.089405
      7 N1         -0.1170   -2.0070    4.2100 n         1 MOL     -0.637056
      8 C3          0.7470   -1.9360    2.9980 c3        1 MOL      0.288749
      9 C4          1.1120   -3.3130    2.3290 c         1 MOL      0.369667
     10 O2          2.1590   -3.9260    2.6540 o         1 MOL     -0.504119
     11 C5          1.9780   -1.1230    3.5150 c3        1 MOL     -0.216507
     12 C6          2.9600   -0.8620    2.3470 c         1 MOL      0.664546
     13 O3          4.1510   -0.7000    2.6680 o         1 MOL     -0.664530
     14 O4          2.5880   -0.9910    1.1560 o         1 MOL     -0.664530
     15 H4          0.2350   -1.8090    5.1440 hn        1 MOL      0.315153
     16 H5          0.2010   -1.3920    2.2360 h1        1 MOL     -0.032605
     17 H6          2.4830   -1.7200    4.2660 hc        1 MOL      0.066329
     18 H7          1.6630   -0.2130    4.0340 hc        1 MOL      0.066329
     19 N2          0.3150   -3.6980    1.3180 n         1 MOL     -0.140714
     20 C7          0.3280   -5.0940    0.7390 c3        1 MOL     -0.150263
     21 C8          1.5830   -5.5410    0.1590 c         1 MOL      0.419640
     22 O5          1.9180   -6.7380   -0.0460 o         1 MOL     -0.568056
     23 C9         -0.9270   -5.4690   -0.0470 c3        1 MOL     -0.079059
     24 C10        -1.0280   -4.9640   -1.4970 c3        1 MOL      0.041332
     25 C11        -2.4320   -5.1610   -2.0370 c3        1 MOL     -0.077979
     26 C12        -2.5820   -4.4370   -3.3620 c3        1 MOL      0.000586
     27 N3         -3.9540   -4.7290   -3.7630 n4        1 MOL     -0.282100
     28 H8         -0.3280   -3.0320    0.9180 hn        1 MOL      0.172612
     29 H9          0.2050   -5.6720    1.6550 h1        1 MOL      0.142280
     30 H10        -1.8130   -5.1210    0.4780 hc        1 MOL      0.068889
     31 H11        -1.0930   -6.5500   -0.0570 hc        1 MOL      0.068889
     32 H12        -0.2990   -5.4350   -2.1550 hc        1 MOL      0.027502
     33 H13        -0.8850   -3.8750   -1.4850 hc        1 MOL      0.027502
     34 H14        -3.2190   -4.8720   -1.3400 hc        1 MOL      0.043350
     35 H15        -2.5750   -6.2420   -2.1470 hc        1 MOL      0.043350
     36 H16        -1.7940   -4.7940   -4.0150 hx        1 MOL      0.095186
     37 H17        -2.4700   -3.3590   -3.4300 hx        1 MOL      0.095186
     38 H18        -4.1010   -4.5340   -4.7430 hn        1 MOL      0.303822
     39 H19        -4.2120   -5.7040   -3.6360 hn        1 MOL      0.303822
     40 H20        -4.6920   -4.3220   -3.2150 hn        1 MOL      0.303822
     41 N4          2.4590   -4.6910   -0.4180 n         1 MOL     -0.114769
     42 C13         3.7080   -5.0000   -1.1730 c3        1 MOL     -0.026388
     43 C14         4.9890   -4.6490   -0.3770 c         1 MOL      0.452245
     44 O6          6.1230   -4.9350   -0.7830 o         1 MOL     -0.531113
     45 C15         3.6640   -4.3140   -2.5340 c3        1 MOL     -0.359618
     46 C16         3.2600   -2.8130   -2.5470 c         1 MOL      0.898109
     47 O7          2.9180   -2.3390   -3.6300 o         1 MOL     -0.784601
     48 O8          3.0230   -2.1370   -1.5420 o         1 MOL     -0.784601
     49 H21         2.1380   -3.7300   -0.3720 hn        1 MOL      0.092257
     50 H22         3.7960   -6.0490   -1.4400 h1        1 MOL      0.135094
     51 H23         2.8560   -4.7510   -3.1230 hc        1 MOL      0.109919
     52 H24         4.6240   -4.3570   -3.0490 hc        1 MOL      0.109919
     53 N5          4.8490   -3.9860    0.7780 n         1 MOL     -0.228448
     54 C17         5.9450   -3.2610    1.4280 c3        1 MOL     -0.280222
     55 C18         6.4140   -1.9750    0.8350 c         1 MOL      0.546934
     56 O9          7.3770   -1.4500    1.3950 o         1 MOL     -0.562054
     57 H25         3.9800   -3.5680    1.0740 hn        1 MOL      0.173339
     58 H26         6.8070   -3.9050    1.5660 h1        1 MOL      0.152516
     59 H27         5.5960   -2.9950    2.4230 h1        1 MOL      0.152516
     60 N6          5.7480   -1.4980   -0.2450 n         1 MOL     -0.193220
     61 C19         6.2240   -0.3860   -1.0460 c3        1 MOL     -0.196636
     62 C20         6.3480    0.9380   -0.3100 c         1 MOL      0.337782
     63 O10         6.9680    1.8400   -0.9050 o         1 MOL     -0.507665
     64 C21         5.4470   -0.3700   -2.4340 c3        1 MOL     -0.067056
     65 C22         4.2630    0.5440   -2.3890 c         1 MOL      0.555894
     66 N7          3.8250    1.1940   -3.4320 n         1 MOL     -0.718428
     67 O11         3.6920    0.8050   -1.3810 o         1 MOL     -0.335736
     68 H28         5.0140   -2.1290   -0.5440 hn        1 MOL      0.214579
     69 H29         7.2360   -0.7120   -1.3070 h1        1 MOL      0.129260
     70 H30         5.1830   -1.3690   -2.7650 hc        1 MOL      0.061486
     71 H31         6.1400    0.0200   -3.1820 hc        1 MOL      0.061486
     72 H32         4.2050    1.0140   -4.3450 hn        1 MOL      0.331124
     73 H33         3.0380    1.8240   -3.2860 hn        1 MOL      0.331124
     74 N8          5.7240    1.1420    0.8330 n         1 MOL     -0.002308
     75 C23         5.9420    2.4250    1.5690 c3        1 MOL     -0.184598
     76 C24         4.7620    3.4050    1.5280 c         1 MOL      0.543019
     77 O12         5.0370    4.6190    1.7380 o         1 MOL     -0.532553
     78 H34         5.2500    0.3760    1.2910 hn        1 MOL      0.202434
     79 H35         6.8680    2.8200    1.1540 h1        1 MOL      0.101979
     80 H36         6.2140    2.1930    2.5990 h1        1 MOL      0.101979
     81 N9          3.6040    2.8880    1.1020 n         1 MOL     -0.405954
     82 C25         2.3060    3.6050    0.7610 c3        1 MOL     -0.022993
     83 C26         1.1370    2.7940    1.1080 c         1 MOL      0.841655
     84 O13         1.0600    1.6010    0.7720 o         1 MOL     -0.785376
     85 C27         2.3250    3.9170   -0.7240 c3        1 MOL      0.010010
     86 C28         3.3710    4.9300   -1.0580 ca        1 MOL     -0.268758
     87 C29         3.2960    6.1590   -0.4690 ca        1 MOL      0.095321
     88 C30         4.3910    4.5380   -1.9350 ca        1 MOL      0.095321
     89 C31         4.2120    7.2030   -0.8410 ca        1 MOL     -0.413840
     90 C32         5.3070    5.5750   -2.3360 ca        1 MOL     -0.413840
     91 C33         5.2000    6.8530   -1.7550 ca        1 MOL      0.498643
     92 O14         6.1300    7.8240   -2.1120 oh        1 MOL     -0.549008
     93 H37         3.6300    1.8900    0.9330 hn        1 MOL      0.187537
     94 H38         2.2330    4.5420    1.3130 h1        1 MOL      0.073930
     95 H39         1.3780    4.3450   -1.0490 hc        1 MOL      0.029427
     96 H40         2.4300    2.9990   -1.2950 hc        1 MOL      0.029427
     97 H41         2.4670    6.4630    0.1560 ha        1 MOL      0.069639
     98 H42         4.4650    3.5320   -2.3150 ha        1 MOL      0.069639
     99 H43         4.2340    8.1820   -0.3860 ha        1 MOL      0.180322
    100 H44         6.0340    5.4210   -3.1240 ha        1 MOL      0.180322
    101 H45         6.1650    8.4290   -1.3790 ho        1 MOL      0.370830
    102 N10         0.2340    3.4230    1.7710 n         1 MOL     -0.767173
    103 C34        -1.1380    2.9110    1.8090 c3        1 MOL      0.219869
    104 C35        -1.9350    3.6660    0.7500 c         1 MOL      0.434275
    105 O15        -1.7540    4.8710    0.5360 o         1 MOL     -0.524653
    106 C36        -1.7060    2.9740    3.2330 c3        1 MOL      0.065776
    107 C37        -0.8230    2.1810    4.1700 c3        1 MOL      0.173262
    108 C38        -3.1280    2.3660    3.3470 c3        1 MOL     -0.338861
    109 C39        -1.0970    2.4020    5.7150 c3        1 MOL     -0.334006
    110 H46         0.3410    4.3880    2.0290 hn        1 MOL      0.383680
    111 H47        -1.1800    1.8550    1.5210 h1        1 MOL      0.071077
    112 H48        -1.6720    4.0250    3.4990 hc        1 MOL      0.021328
    113 H49         0.2280    2.4250    4.0570 hc        1 MOL     -0.004218
    114 H50        -0.8090    1.1130    3.9360 hc        1 MOL     -0.004218
    115 H51        -3.5490    2.3650    4.3500 hc        1 MOL      0.075549
    116 H52        -3.7920    2.9130    2.6850 hc        1 MOL      0.075549
    117 H53        -3.1900    1.3100    3.0830 hc        1 MOL      0.075549
    118 H54        -0.6870    3.3340    6.1160 hc        1 MOL      0.080445
    119 H55        -2.1450    2.3500    6.0070 hc        1 MOL      0.080445
    120 H56        -0.4860    1.7380    6.3300 hc        1 MOL      0.080445
    121 N11        -2.8670    2.8900    0.1530 n         1 MOL     -0.254452
    122 C40        -3.7490    3.3450   -0.8690 c3        1 MOL      0.033493
    123 C41        -5.1490    2.9750   -0.4610 c         1 MOL      0.464509
    124 O16        -5.3580    2.1870    0.4090 o         1 MOL     -0.325699
    125 C42        -3.2890    2.7050   -2.1540 c3        1 MOL     -0.046112
    126 O17        -3.5110    1.2830   -2.1230 oh        1 MOL     -0.555500
    127 H57        -3.0510    1.9850    0.5430 hn        1 MOL      0.209711
    128 H58        -3.6630    4.4190   -1.0290 h1        1 MOL      0.051351
    129 H59        -2.3170    3.1350   -2.4020 h1        1 MOL      0.089854
    130 H60        -3.9200    3.0690   -2.9730 h1        1 MOL      0.089854
    131 H61        -2.7800    0.7960   -1.7410 ho        1 MOL      0.327028
    132 N12        -6.2190    3.5460   -1.0810 n         1 MOL     -0.468153
    133 C43        -7.6410    3.2520   -0.8250 c3        1 MOL      0.019382
    134 C44        -8.0950    1.8390   -1.0520 c         1 MOL      0.515718
    135 O18        -8.6800    1.3040   -0.1360 o         1 MOL     -0.492386
    136 C45        -8.4780    4.2140   -1.5220 c3        1 MOL     -0.318768
    137 H62        -6.0540    4.0340   -1.9440 hn        1 MOL      0.276287
    138 H63        -7.7970    3.5390    0.2110 h1        1 MOL      0.135532
    139 H64        -8.2290    5.2180   -1.1790 hc        1 MOL      0.102625
    140 H65        -8.4510    4.2130   -2.6180 hc        1 MOL      0.102625
    141 H66        -9.5400    4.1450   -1.2870 hc        1 MOL      0.102625
    142 N13        -7.6770    1.2350   -2.1940 n         1 MOL     -0.469568
    143 C46        -7.8820   -0.2440   -2.4210 c3        1 MOL      0.154933
    144 C47        -7.2890   -1.0990   -1.3530 c         1 MOL      0.327718
    145 O19        -7.9220   -2.0940   -0.9100 o         1 MOL     -0.501201
    146 C48        -7.3760   -0.6970   -3.8240 c3        1 MOL     -0.334107
    147 H67        -7.2450    1.8450   -2.8740 hn        1 MOL      0.317207
    148 H68        -8.9500   -0.4290   -2.3050 h1        1 MOL      0.096854
    149 H69        -6.3410   -0.3720   -3.9400 hc        1 MOL      0.091863
    150 H70        -7.4500   -1.7720   -3.9840 hc        1 MOL      0.091863
    151 H71        -8.0150   -0.1350   -4.5100 hc        1 MOL      0.091863
    152 N14        -6.1030   -0.7650   -0.7890 n         1 MOL     -0.098766
    153 C49        -5.4690   -1.4560    0.2930 c3        1 MOL     -0.172412
    154 C50        -6.2090   -1.2640    1.6390 c         1 MOL      0.478843
    155 O20        -6.3550   -2.2310    2.4010 o         1 MOL     -0.541306
    156 C51        -3.9850   -1.0370    0.4070 c3        1 MOL      0.116043
    157 C52        -3.0000   -1.6320   -0.6180 c3        1 MOL     -0.024576
    158 C53        -1.5510   -0.9980   -0.5350 c         1 MOL      0.690863
    159 O21        -0.5870   -1.7020   -0.1910 o         1 MOL     -0.636395
    160 O22        -1.3360    0.1580   -0.8330 o         1 MOL     -0.636395
    161 H72        -5.7520    0.0890   -1.2020 hn        1 MOL      0.132044
    162 H73        -5.4500   -2.5340    0.1160 h1        1 MOL      0.100006
    163 H74        -3.5980   -1.2710    1.4130 hc        1 MOL     -0.000685
    164 H75        -3.9760    0.0560    0.3570 hc        1 MOL     -0.000685
    165 H76        -3.3450   -1.5100   -1.6410 hc        1 MOL     -0.032231
    166 H77        -2.9420   -2.7040   -0.4490 hc        1 MOL     -0.032231
    167 N15        -6.7490   -0.0850    1.8670 n         1 MOL     -0.022216
    168 C54        -7.4910    0.2740    3.0960 c3        1 MOL     -0.336521
    169 H78        -6.8670    0.0750    3.9680 h1        1 MOL      0.129938
    170 H79        -7.7500    1.3330    3.0690 h1        1 MOL      0.129938
    171 H80        -8.4010   -0.3220    3.1580 h1        1 MOL      0.129938
    172 H81        -6.4260    0.6830    1.2970 hn        1 MOL      0.050861
    173 Ca1         1.4030   -0.3680   -0.8910 Ca        1 MOL      1.661727
    174 O23         0.8100    1.3650   -2.9170 oh        1 MOL     -0.850330
    175 H82         1.1680    1.4700   -3.7980 ho        1 MOL      0.403318
    176 H83         0.1900    2.0860   -2.8360 ho        1 MOL      0.403318
    177 O24         0.4730   -1.5060   -3.3380 oh        1 MOL     -0.850330
    178 H84         1.3980   -1.5540   -3.5920 ho        1 MOL      0.403318
    179 H85         0.0040   -1.4310   -4.1700 ho        1 MOL      0.403318
@<TRIPOS>BOND
     1    1    2 1   
     2    1    4 1   
     3    1    5 1   
     4    1    6 1   
     5    2    3 2   
     6    2    7 1   
     7    7    8 1   
     8    7   15 1   
     9    8    9 1   
    10    8   11 1   
    11    8   16 1   
    12    9   10 2   
    13    9   19 1   
    14   11   12 1   
    15   11   17 1   
    16   11   18 1   
    17   12   13 1   
    18   12   14 1   
    19   19   20 1   
    20   19   28 1   
    21   20   21 1   
    22   20   23 1   
    23   20   29 1   
    24   21   22 2   
    25   21   41 1   
    26   23   24 1   
    27   23   30 1   
    28   23   31 1   
    29   24   25 1   
    30   24   32 1   
    31   24   33 1   
    32   25   26 1   
    33   25   34 1   
    34   25   35 1   
    35   26   27 1   
    36   26   36 1   
    37   26   37 1   
    38   27   38 1   
    39   27   39 1   
    40   27   40 1   
    41   41   42 1   
    42   41   49 1   
    43   42   43 1   
    44   42   45 1   
    45   42   50 1   
    46   43   44 2   
    47   43   53 1   
    48   45   46 1   
    49   45   51 1   
    50   45   52 1   
    51   46   47 1   
    52   46   48 1   
    53   53   54 1   
    54   53   57 1   
    55   54   55 1   
    56   54   58 1   
    57   54   59 1   
    58   55   56 2   
    59   55   60 1   
    60   60   61 1   
    61   60   68 1   
    62   61   62 1   
    63   61   64 1   
    64   61   69 1   
    65   62   63 2   
    66   62   74 1   
    67   64   65 1   
    68   64   70 1   
    69   64   71 1   
    70   65   66 1   
    71   65   67 2   
    72   66   72 1   
    73   66   73 1   
    74   74   75 1   
    75   74   78 1   
    76   75   76 1   
    77   75   79 1   
    78   75   80 1   
    79   76   77 2   
    80   76   81 1   
    81   81   82 1   
    82   81   93 1   
    83   82   83 1   
    84   82   85 1   
    85   82   94 1   
    86   83   84 2   
    87   83  102 1   
    88   85   86 1   
    89   85   95 1   
    90   85   96 1   
    91   86   87 ar  
    92   86   88 ar  
    93   87   89 ar  
    94   87   97 1   
    95   88   90 ar  
    96   88   98 1   
    97   89   91 ar  
    98   89   99 1   
    99   90   91 ar  
   100   90  100 1   
   101   91   92 1   
   102   92  101 1   
   103  102  103 1   
   104  102  110 1   
   105  103  104 1   
   106  103  106 1   
   107  103  111 1   
   108  104  105 2   
   109  104  121 1   
   110  106  107 1   
   111  106  108 1   
   112  106  112 1   
   113  107  109 1   
   114  107  113 1   
   115  107  114 1   
   116  108  115 1   
   117  108  116 1   
   118  108  117 1   
   119  109  118 1   
   120  109  119 1   
   121  109  120 1   
   122  121  122 1   
   123  121  127 1   
   124  122  123 1   
   125  122  125 1   
   126  122  128 1   
   127  123  124 2   
   128  123  132 1   
   129  125  126 1   
   130  125  129 1   
   131  125  130 1   
   132  126  131 1   
   133  132  133 1   
   134  132  137 1   
   135  133  134 1   
   136  133  136 1   
   137  133  138 1   
   138  134  135 2   
   139  134  142 1   
   140  136  139 1   
   141  136  140 1   
   142  136  141 1   
   143  142  143 1   
   144  142  147 1   
   145  143  144 1   
   146  143  146 1   
   147  143  148 1   
   148  144  145 2   
   149  144  152 1   
   150  146  149 1   
   151  146  150 1   
   152  146  151 1   
   153  152  153 1   
   154  152  161 1   
   155  153  154 1   
   156  153  156 1   
   157  153  162 1   
   158  154  155 2   
   159  154  167 1   
   160  156  157 1   
   161  156  163 1   
   162  156  164 1   
   163  157  158 1   
   164  157  165 1   
   165  157  166 1   
   166  158  159 1   
   167  158  160 1   
   168  167  168 1   
   169  167  172 1   
   170  168  169 1   
   171  168  170 1   
   172  168  171 1   
   173  174  175 1   
   174  174  176 1   
   175  177  178 1   
   176  177  179 1   
@<TRIPOS>SUBSTRUCTURE
     1 MOL         1 TEMP              0 ****  ****    0 ROOT
