@<TRIPOS>MOLECULE
MOL
  176   174     1     0     0
SMALL
resp


@<TRIPOS>ATOM
      1 C1         -0.6260    5.4980    5.5600 c3        1 MOL     -0.323209
      2 C2         -0.5580    4.8110    4.1490 c         1 MOL      0.667777
      3 O1          0.4860    4.9380    3.4950 o         1 MOL     -0.573770
      4 H1         -1.1730    6.4370    5.4810 hc        1 MOL      0.089464
      5 H2         -1.1350    4.8390    6.2630 hc        1 MOL      0.089464
      6 H3          0.3850    5.6980    5.9160 hc        1 MOL      0.089464
      7 N1         -1.6560    4.1760    3.6700 n         1 MOL     -0.577151
      8 C3         -1.6900    3.4430    2.3570 c3        1 MOL      0.216414
      9 C4         -1.5270    4.5360    1.2650 c         1 MOL      0.311417
     10 O2         -2.1790    5.5660    1.3510 o         1 MOL     -0.510350
     11 C5         -3.0290    2.7090    2.1120 c3        1 MOL     -0.208856
     12 C6         -3.0230    1.7380    0.9030 c         1 MOL      0.649809
     13 O3         -2.6990    2.0970   -0.2400 o         1 MOL     -0.625573
     14 O4         -3.4130    0.5560    1.0420 o         1 MOL     -0.625573
     15 H4         -2.4200    4.0160    4.3130 hn        1 MOL      0.330848
     16 H5         -0.8210    2.7920    2.3240 h1        1 MOL      0.067839
     17 H6         -3.8540    3.3910    1.9100 hc        1 MOL      0.071124
     18 H7         -3.1890    2.2220    3.0720 hc        1 MOL      0.071124
     19 N2         -0.6660    4.2630    0.2530 n         1 MOL     -0.130862
     20 C7         -0.4100    5.1960   -0.8230 c3        1 MOL     -0.079225
     21 C8         -1.1990    5.0200   -2.1570 c         1 MOL      0.665499
     22 O5         -0.8140    5.6730   -3.1510 o         1 MOL     -0.561526
     23 C9          1.0780    5.2110   -1.0770 c3        1 MOL     -0.092088
     24 C10         1.9020    5.7620    0.1050 c3        1 MOL     -0.019479
     25 C11         1.4570    7.1250    0.6400 c3        1 MOL     -0.038866
     26 C12         2.3210    7.6240    1.7870 c3        1 MOL     -0.066576
     27 N3          1.5070    7.5640    3.0550 n4        1 MOL     -0.221504
     28 H8         -0.2780    3.3290    0.2820 hn        1 MOL      0.138713
     29 H9         -0.8370    6.1230   -0.4390 h1        1 MOL      0.042232
     30 H10         1.3370    5.8920   -1.8990 hc        1 MOL      0.062569
     31 H11         1.5180    4.2840   -1.4440 hc        1 MOL      0.062569
     32 H12         2.9350    5.6500   -0.2140 hc        1 MOL      0.020557
     33 H13         1.9750    5.1090    0.9700 hc        1 MOL      0.020557
     34 H14         0.4460    6.9880    1.0120 hc        1 MOL      0.059667
     35 H15         1.4910    7.9000   -0.1240 hc        1 MOL      0.059667
     36 H16         2.6960    8.6360    1.6590 hx        1 MOL      0.101885
     37 H17         3.1150    6.9130    2.0310 hx        1 MOL      0.101885
     38 H18         1.4510    6.6150    3.3740 hn        1 MOL      0.275144
     39 H19         1.8870    8.1640    3.7730 hn        1 MOL      0.275144
     40 H20         0.5370    7.8220    2.9560 hn        1 MOL      0.275144
     41 N4         -2.2750    4.2040   -2.0660 n         1 MOL     -0.499636
     42 C13        -3.2360    4.0770   -3.1960 c3        1 MOL     -0.026773
     43 C14        -4.7310    3.8280   -2.7360 c         1 MOL      0.472309
     44 O6         -5.6590    4.3270   -3.3770 o         1 MOL     -0.555948
     45 C15        -2.6940    3.0760   -4.2520 c3        1 MOL     -0.105775
     46 C16        -2.2340    1.6880   -3.6860 c         1 MOL      0.694760
     47 O7         -1.0050    1.3890   -3.5740 o         1 MOL     -0.749944
     48 O8         -3.1200    0.9930   -3.2010 o         1 MOL     -0.749944
     49 H21        -2.3660    3.5290   -1.3210 hn        1 MOL      0.289812
     50 H22        -3.3010    5.1070   -3.5410 h1        1 MOL      0.103692
     51 H23        -1.8680    3.6010   -4.7250 hc        1 MOL      0.047286
     52 H24        -3.3970    2.9960   -5.0850 hc        1 MOL      0.047286
     53 N5         -4.9870    3.1460   -1.6380 n         1 MOL     -0.177863
     54 C17        -6.3050    3.0960   -0.8490 c3        1 MOL     -0.251256
     55 C18        -6.9240    1.6250   -0.7620 c         1 MOL      0.432504
     56 O9         -8.0590    1.4620   -0.2930 o         1 MOL     -0.526302
     57 H25        -4.1830    2.7730   -1.1590 hn        1 MOL      0.167661
     58 H26        -7.0100    3.7160   -1.4010 h1        1 MOL      0.149695
     59 H27        -6.0780    3.5750    0.1000 h1        1 MOL      0.149695
     60 N6         -6.1430    0.6150   -1.0990 n         1 MOL     -0.023721
     61 C19        -6.5690   -0.7880   -1.0020 c3        1 MOL     -0.233751
     62 C20        -6.4680   -1.6070    0.3030 c         1 MOL      0.385753
     63 O10        -7.1950   -2.6320    0.5210 o         1 MOL     -0.483443
     64 C21        -5.9870   -1.6830   -2.1430 c3        1 MOL      0.004515
     65 C22        -4.5400   -2.1350   -2.0450 c         1 MOL      0.742348
     66 N7         -4.2360   -3.2570   -2.5890 n         1 MOL     -0.818577
     67 O11        -3.7300   -1.5040   -1.4470 o         1 MOL     -0.576948
     68 H28        -5.2160    0.7730   -1.4780 hn        1 MOL      0.090255
     69 H29        -7.6380   -0.7240   -1.2170 h1        1 MOL      0.146859
     70 H30        -6.0790   -1.2340   -3.1310 hc        1 MOL      0.027178
     71 H31        -6.5360   -2.6190   -2.2090 hc        1 MOL      0.027178
     72 H32        -4.9520   -3.8140   -3.0360 hn        1 MOL      0.366020
     73 H33        -3.2660   -3.5400   -2.6770 hn        1 MOL      0.366020
     74 N8         -5.7310   -1.1620    1.2710 n         1 MOL     -0.117214
     75 C23        -5.5060   -1.9530    2.5440 c3        1 MOL     -0.225602
     76 C24        -4.3280   -2.9480    2.4920 c         1 MOL      0.556748
     77 O12        -4.2740   -3.9030    3.2830 o         1 MOL     -0.548737
     78 H34        -5.1400   -0.3490    1.2510 hn        1 MOL      0.180933
     79 H35        -6.4470   -2.4240    2.8400 h1        1 MOL      0.113413
     80 H36        -5.2450   -1.1910    3.2780 h1        1 MOL      0.113413
     81 N9         -3.3650   -2.6880    1.5850 n         1 MOL     -0.150473
     82 C25        -2.0710   -3.4570    1.4470 c3        1 MOL      0.017989
     83 C26        -0.8800   -2.5360    1.2280 c         1 MOL      0.487229
     84 O13        -1.0840   -1.4280    0.8040 o         1 MOL     -0.498021
     85 C27        -2.2570   -4.4650    0.2490 c3        1 MOL      0.265805
     86 C28        -3.3430   -5.6040    0.2700 ca        1 MOL     -0.155161
     87 C29        -4.6850   -5.2890   -0.0270 ca        1 MOL     -0.047808
     88 C30        -2.9950   -6.9060    0.6260 ca        1 MOL     -0.047808
     89 C31        -5.6590   -6.2550    0.0840 ca        1 MOL     -0.346167
     90 C32        -3.9530   -7.9140    0.7020 ca        1 MOL     -0.346167
     91 C33        -5.3470   -7.6260    0.4920 ca        1 MOL      0.438884
     92 O14        -6.2750   -8.5610    0.6680 oh        1 MOL     -0.473229
     93 H37        -3.5170   -1.8540    1.0520 hn        1 MOL      0.020149
     94 H38        -1.8740   -3.9990    2.3770 h1        1 MOL      0.024095
     95 H39        -1.3160   -4.9630    0.0120 hc        1 MOL     -0.063802
     96 H40        -2.3470   -3.9350   -0.6970 hc        1 MOL     -0.063802
     97 H41        -4.9840   -4.2830   -0.2710 ha        1 MOL      0.095332
     98 H42        -2.0080   -7.0940    1.0180 ha        1 MOL      0.095332
     99 H43        -6.6990   -6.0200   -0.0800 ha        1 MOL      0.153351
    100 H44        -3.6630   -8.8750    1.1060 ha        1 MOL      0.153351
    101 H45        -5.9250   -9.3620    1.0610 ho        1 MOL      0.356923
    102 N10         0.3360   -3.0580    1.5850 n         1 MOL     -0.388593
    103 C34         1.6500   -2.3470    1.4110 c3        1 MOL     -0.462361
    104 C35         2.6830   -3.4030    0.9840 c         1 MOL      0.480301
    105 O15         2.9410   -4.4770    1.5760 o         1 MOL     -0.499553
    106 C36         2.0580   -1.4920    2.6070 c3        1 MOL      0.559982
    107 C37         2.2810   -2.2600    3.9560 c3        1 MOL      0.007698
    108 C38         1.1840   -0.2630    2.8590 c3        1 MOL     -0.386877
    109 C39         2.5470   -1.4120    5.1970 c3        1 MOL     -0.136552
    110 H46         0.4260   -3.8910    2.1560 hn        1 MOL      0.314455
    111 H47         1.5600   -1.6640    0.5580 h1        1 MOL      0.290134
    112 H48         3.0280   -1.1440    2.2520 hc        1 MOL     -0.176692
    113 H49         3.1250   -2.8790    3.6670 hc        1 MOL     -0.008555
    114 H50         1.4740   -2.9890    4.0590 hc        1 MOL     -0.008555
    115 H51         0.9010    0.2190    1.9240 hc        1 MOL      0.079401
    116 H52         0.2610   -0.6290    3.3020 hc        1 MOL      0.079401
    117 H53         1.6510    0.5310    3.4340 hc        1 MOL      0.079401
    118 H54         2.9430   -2.1120    5.9390 hc        1 MOL      0.033434
    119 H55         3.2460   -0.5930    5.0620 hc        1 MOL      0.033434
    120 H56         1.5900   -1.0490    5.5640 hc        1 MOL      0.033434
    121 N11         3.1760   -3.2390   -0.2610 n         1 MOL     -0.297906
    122 C40         4.4240   -3.8520   -0.8470 c3        1 MOL     -0.009089
    123 C41         5.7280   -3.3130   -0.1470 c         1 MOL      0.464604
    124 O16         5.6290   -2.3460    0.6210 o         1 MOL     -0.400722
    125 C42         4.3940   -3.8210   -2.3420 c3        1 MOL      0.054886
    126 O17         4.7130   -2.5710   -2.8480 oh        1 MOL     -0.533879
    127 H57         2.7240   -2.4800   -0.7440 hn        1 MOL      0.232104
    128 H58         4.3440   -4.8910   -0.5240 h1        1 MOL      0.045442
    129 H59         3.3940   -4.1300   -2.6320 h1        1 MOL      0.062327
    130 H60         5.1730   -4.4830   -2.7260 h1        1 MOL      0.062327
    131 H61         3.9110   -2.0590   -2.7680 ho        1 MOL      0.390992
    132 N12         6.8420   -3.8790   -0.5650 n         1 MOL     -0.340797
    133 C43         8.1200   -3.3740   -0.0200 c3        1 MOL      0.009081
    134 C44         8.5110   -1.9850   -0.5410 c         1 MOL      0.539323
    135 O18         9.0230   -1.1260    0.1730 o         1 MOL     -0.523595
    136 C45         9.0910   -4.5300   -0.1740 c3        1 MOL     -0.181972
    137 H62         6.7790   -4.7360   -1.0820 hn        1 MOL      0.271086
    138 H63         7.8710   -3.1970    1.0280 h1        1 MOL      0.097164
    139 H64         9.9810   -4.3400    0.4230 hc        1 MOL      0.067527
    140 H65         8.6550   -5.4650    0.1550 hc        1 MOL      0.067527
    141 H66         9.4300   -4.6180   -1.2050 hc        1 MOL      0.067527
    142 N13         8.2090   -1.6830   -1.8100 n         1 MOL     -0.425921
    143 C46         8.3540   -0.3260   -2.4890 c3        1 MOL      0.025637
    144 C47         7.3010    0.7520   -1.9960 c         1 MOL      0.529086
    145 O19         7.6640    1.8700   -1.9570 o         1 MOL     -0.511871
    146 C48         8.6940   -0.4400   -3.9940 c3        1 MOL     -0.215183
    147 H67         7.7930   -2.4460   -2.3290 hn        1 MOL      0.276113
    148 H68         9.2090    0.1800   -2.0320 h1        1 MOL      0.119573
    149 H69         7.8920   -0.4450   -4.7340 hc        1 MOL      0.073356
    150 H70         9.2710    0.4460   -4.2440 hc        1 MOL      0.073356
    151 H71         9.3910   -1.2540   -4.1780 hc        1 MOL      0.073356
    152 N14         6.1930    0.2830   -1.4140 n         1 MOL     -0.353944
    153 C49         5.2930    1.1790   -0.6090 c3        1 MOL      0.024415
    154 C50         5.8120    1.3120    0.8540 c         1 MOL      0.530623
    155 O20         5.8100    2.3990    1.3430 o         1 MOL     -0.561604
    156 C51         3.7950    0.7250   -0.9170 c3        1 MOL     -0.040940
    157 C52         2.6250    1.6700   -0.5500 c3        1 MOL     -0.179068
    158 C53         1.1990    1.0290   -0.7290 c         1 MOL      0.849386
    159 O21         1.0200   -0.0880   -1.2790 o         1 MOL     -0.807778
    160 O22         0.1800    1.4970   -0.2300 o         1 MOL     -0.807778
    161 H72         5.9660   -0.7060   -1.4380 hn        1 MOL      0.138774
    162 H73         5.4200    2.1850   -1.0080 h1        1 MOL      0.083422
    163 H74         3.6910   -0.2170   -0.3780 hc        1 MOL      0.026689
    164 H75         3.8410    0.5490   -1.9830 hc        1 MOL      0.026689
    165 H76         2.7270    2.6330   -1.0370 hc        1 MOL      0.067727
    166 H77         2.7360    1.9240    0.5080 hc        1 MOL      0.067727
    167 N15         6.4010    0.2550    1.4460 n         1 MOL     -0.099786
    168 C54         6.9950    0.2130    2.7970 c3        1 MOL     -0.307997
    169 H78         7.0130   -0.8170    3.1540 h1        1 MOL      0.116642
    170 H79         8.0130    0.6020    2.7590 h1        1 MOL      0.116642
    171 H80         6.3970    0.8210    3.4770 h1        1 MOL      0.116642
    172 H81         6.6140   -0.5760    0.9040 hn        1 MOL      0.110807
    173 Ca1        -1.5850   -0.0130   -1.3730 Ca        1 MOL      1.753326
    174 O23        -1.1380   -2.3490   -2.5670 oh        1 MOL     -0.938085
    175 H82        -1.3180   -2.2680   -3.5040 ho        1 MOL      0.450700
    176 H83        -0.5850   -3.1230   -2.4890 ho        1 MOL      0.450700
@<TRIPOS>BOND
     1    1    2 1   
     2    1    4 1   
     3    1    5 1   
     4    1    6 1   
     5    2    3 2   
     6    2    7 1   
     7    7    8 1   
     8    7   15 1   
     9    8    9 1   
    10    8   11 1   
    11    8   16 1   
    12    9   10 2   
    13    9   19 1   
    14   11   12 1   
    15   11   17 1   
    16   11   18 1   
    17   12   13 1   
    18   12   14 1   
    19   19   20 1   
    20   19   28 1   
    21   20   21 1   
    22   20   23 1   
    23   20   29 1   
    24   21   22 2   
    25   21   41 1   
    26   23   24 1   
    27   23   30 1   
    28   23   31 1   
    29   24   25 1   
    30   24   32 1   
    31   24   33 1   
    32   25   26 1   
    33   25   34 1   
    34   25   35 1   
    35   26   27 1   
    36   26   36 1   
    37   26   37 1   
    38   27   38 1   
    39   27   39 1   
    40   27   40 1   
    41   41   42 1   
    42   41   49 1   
    43   42   43 1   
    44   42   45 1   
    45   42   50 1   
    46   43   44 2   
    47   43   53 1   
    48   45   46 1   
    49   45   51 1   
    50   45   52 1   
    51   46   47 1   
    52   46   48 1   
    53   53   54 1   
    54   53   57 1   
    55   54   55 1   
    56   54   58 1   
    57   54   59 1   
    58   55   56 2   
    59   55   60 1   
    60   60   61 1   
    61   60   68 1   
    62   61   62 1   
    63   61   64 1   
    64   61   69 1   
    65   62   63 2   
    66   62   74 1   
    67   64   65 1   
    68   64   70 1   
    69   64   71 1   
    70   65   66 1   
    71   65   67 2   
    72   66   72 1   
    73   66   73 1   
    74   74   75 1   
    75   74   78 1   
    76   75   76 1   
    77   75   79 1   
    78   75   80 1   
    79   76   77 2   
    80   76   81 1   
    81   81   82 1   
    82   81   93 1   
    83   82   83 1   
    84   82   85 1   
    85   82   94 1   
    86   83   84 2   
    87   83  102 1   
    88   85   86 1   
    89   85   95 1   
    90   85   96 1   
    91   86   87 ar  
    92   86   88 ar  
    93   87   89 ar  
    94   87   97 1   
    95   88   90 ar  
    96   88   98 1   
    97   89   91 ar  
    98   89   99 1   
    99   90   91 ar  
   100   90  100 1   
   101   91   92 1   
   102   92  101 1   
   103  102  103 1   
   104  102  110 1   
   105  103  104 1   
   106  103  106 1   
   107  103  111 1   
   108  104  105 2   
   109  104  121 1   
   110  106  107 1   
   111  106  108 1   
   112  106  112 1   
   113  107  109 1   
   114  107  113 1   
   115  107  114 1   
   116  108  115 1   
   117  108  116 1   
   118  108  117 1   
   119  109  118 1   
   120  109  119 1   
   121  109  120 1   
   122  121  122 1   
   123  121  127 1   
   124  122  123 1   
   125  122  125 1   
   126  122  128 1   
   127  123  124 2   
   128  123  132 1   
   129  125  126 1   
   130  125  129 1   
   131  125  130 1   
   132  126  131 1   
   133  132  133 1   
   134  132  137 1   
   135  133  134 1   
   136  133  136 1   
   137  133  138 1   
   138  134  135 2   
   139  134  142 1   
   140  136  139 1   
   141  136  140 1   
   142  136  141 1   
   143  142  143 1   
   144  142  147 1   
   145  143  144 1   
   146  143  146 1   
   147  143  148 1   
   148  144  145 2   
   149  144  152 1   
   150  146  149 1   
   151  146  150 1   
   152  146  151 1   
   153  152  153 1   
   154  152  161 1   
   155  153  154 1   
   156  153  156 1   
   157  153  162 1   
   158  154  155 2   
   159  154  167 1   
   160  156  157 1   
   161  156  163 1   
   162  156  164 1   
   163  157  158 1   
   164  157  165 1   
   165  157  166 1   
   166  158  159 1   
   167  158  160 1   
   168  167  168 1   
   169  167  172 1   
   170  168  169 1   
   171  168  170 1   
   172  168  171 1   
   173  174  175 1   
   174  174  176 1   
@<TRIPOS>SUBSTRUCTURE
     1 MOL         1 TEMP              0 ****  ****    0 ROOT
