@<TRIPOS>MOLECULE
MOL
  183   181     1     0     0
SMALL
resp


@<TRIPOS>ATOM
      1 C1         -0.4930    1.0440    6.3780 c3        1 MOL     -0.343386
      2 C2         -1.0040    1.4350    4.9220 c         1 MOL      0.685088
      3 O1         -0.3440    2.2840    4.3430 o         1 MOL     -0.537368
      4 H1          0.1690    0.1810    6.3110 hc        1 MOL      0.079544
      5 H2          0.0490    1.8850    6.8110 hc        1 MOL      0.079544
      6 H3         -1.3470    0.7980    7.0090 hc        1 MOL      0.079544
      7 N1         -2.1060    0.8170    4.4230 n         1 MOL     -0.603413
      8 C3         -2.6380    1.0900    3.0440 c3        1 MOL      0.279758
      9 C4         -2.8790    2.5810    2.7430 c         1 MOL      0.413095
     10 O2         -3.7320    3.2160    3.4580 o         1 MOL     -0.575330
     11 C5         -3.9140    0.2330    2.9510 c3        1 MOL     -0.367214
     12 C6         -4.5840    0.2140    1.6230 c         1 MOL      0.802875
     13 O3         -5.7660   -0.2350    1.5520 o         1 MOL     -0.599619
     14 O4         -4.0060    0.6460    0.6150 o         1 MOL     -0.599619
     15 H4         -2.4330    0.0250    4.9530 hn        1 MOL      0.306552
     16 H5         -1.9040    0.6610    2.3680 h1        1 MOL     -0.051482
     17 H6         -4.6160    0.4140    3.7600 hc        1 MOL      0.080415
     18 H7         -3.4490   -0.7440    3.0250 hc        1 MOL      0.080415
     19 N2         -2.1810    3.1660    1.7830 n         1 MOL     -0.077881
     20 C7         -2.3040    4.5700    1.3740 c3        1 MOL     -0.104739
     21 C8         -3.4850    4.7990    0.4280 c         1 MOL      0.508674
     22 O5         -3.9610    5.9400    0.3930 o         1 MOL     -0.584494
     23 C9         -0.9280    4.9980    0.7490 c3        1 MOL      0.143889
     24 C10         0.1370    5.2880    1.9500 c3        1 MOL     -0.081694
     25 C11        -0.9980    6.1510   -0.2370 c3        1 MOL     -0.158103
     26 C12         1.6040    5.4520    1.6520 c3        1 MOL      0.011623
     27 H8         -1.6010    2.5720    1.2050 hn        1 MOL      0.124731
     28 H9         -2.4460    5.1910    2.2630 h1        1 MOL      0.059151
     29 H10        -0.5080    4.1640    0.1850 hc        1 MOL      0.058416
     30 H11         0.0400    4.3730    2.5390 hc        1 MOL      0.016425
     31 H12        -0.0840    6.1900    2.5160 hc        1 MOL      0.016425
     32 H13         0.0320    6.4470   -0.4720 hc        1 MOL      0.033181
     33 H14        -1.4710    5.8070   -1.1630 hc        1 MOL      0.033181
     34 H15        -1.4920    7.0530    0.1280 hc        1 MOL      0.033181
     35 H16         1.9780    4.6240    1.0490 hc        1 MOL     -0.000700
     36 H17         1.7270    6.3500    1.0570 hc        1 MOL     -0.000700
     37 H18         2.1780    5.6470    2.5630 hc        1 MOL     -0.000700
     38 N3         -4.0130    3.8640   -0.3100 n         1 MOL     -0.319855
     39 C13        -5.0530    4.0410   -1.3190 c3        1 MOL      0.082797
     40 C14        -6.3770    3.2780   -1.1370 c         1 MOL      0.396965
     41 O6         -7.2930    3.5930   -1.8500 o         1 MOL     -0.511886
     42 C15        -4.5020    4.0040   -2.7070 c3        1 MOL     -0.293079
     43 C16        -3.5900    2.8060   -3.0350 c         1 MOL      0.858051
     44 O7         -3.3290    1.8980   -2.2240 o         1 MOL     -0.728347
     45 O8         -3.0860    2.8590   -4.1860 o         1 MOL     -0.728347
     46 H19        -3.7110    2.9070   -0.2400 hn        1 MOL      0.149222
     47 H20        -5.3850    5.0580   -1.1380 h1        1 MOL      0.077723
     48 H21        -3.8800    4.8990   -2.7000 hc        1 MOL      0.075065
     49 H22        -5.3420    4.1020   -3.3900 hc        1 MOL      0.075065
     50 N4         -6.6220    2.3060   -0.1870 n         1 MOL     -0.139732
     51 C17        -8.0020    1.8440    0.0240 c3        1 MOL     -0.200928
     52 C18        -8.2950    0.4800   -0.7170 c         1 MOL      0.556638
     53 O9         -9.4190    0.3010   -1.1750 o         1 MOL     -0.614959
     54 H23        -5.8600    2.0770    0.4330 hn        1 MOL      0.141120
     55 H24        -8.6840    2.6340   -0.2820 h1        1 MOL      0.090973
     56 H25        -8.0260    1.6560    1.0960 h1        1 MOL      0.090973
     57 N5         -7.3300   -0.4080   -0.8130 n         1 MOL     -0.076581
     58 C19        -7.5000   -1.6970   -1.5120 c3        1 MOL     -0.036528
     59 C20        -7.3450   -2.8990   -0.5320 c         1 MOL      0.399181
     60 O10        -7.6520   -4.0490   -0.8680 o         1 MOL     -0.536087
     61 C21        -6.3920   -1.9340   -2.5450 c3        1 MOL     -0.204636
     62 C22        -5.0210   -1.5340   -2.1300 c         1 MOL      0.867156
     63 O11        -4.2920   -0.9480   -2.9820 o         1 MOL     -0.783879
     64 O12        -4.6450   -1.7190   -0.9930 o         1 MOL     -0.783879
     65 H26        -6.4130   -0.1760   -0.4570 hn        1 MOL      0.009881
     66 H27        -8.5120   -1.7430   -1.9170 h1        1 MOL      0.098506
     67 H28        -6.5290   -1.3140   -3.4380 hc        1 MOL      0.050096
     68 H29        -6.2460   -2.9560   -2.9120 hc        1 MOL      0.050096
     69 N6         -6.8890   -2.5900    0.7330 n         1 MOL     -0.200991
     70 C23        -6.6490   -3.6050    1.7780 c3        1 MOL     -0.102210
     71 C24        -5.4700   -4.5460    1.4650 c         1 MOL      0.480449
     72 O13        -5.2510   -5.5730    2.1130 o         1 MOL     -0.591327
     73 H30        -6.4800   -1.6710    0.7770 hn        1 MOL      0.069717
     74 H31        -7.4830   -4.2740    1.9570 h1        1 MOL      0.071266
     75 H32        -6.3270   -2.9990    2.6180 h1        1 MOL      0.071266
     76 N7         -4.4760   -3.9750    0.7950 n         1 MOL     -0.088585
     77 C25        -3.0900   -4.4840    0.6770 c3        1 MOL     -0.128816
     78 C26        -1.9890   -3.4300    0.8120 c         1 MOL      0.617718
     79 O14        -2.3050   -2.2760    0.7060 o         1 MOL     -0.641955
     80 C27        -2.8120   -5.4200   -0.4750 c3        1 MOL     -0.075037
     81 C28        -3.0650   -4.9000   -1.8940 c3        1 MOL     -0.163582
     82 C29        -1.9940   -3.9470   -2.3380 c         1 MOL      0.627121
     83 N8         -1.0010   -4.4370   -3.1330 n         1 MOL     -0.791214
     84 O15        -2.0110   -2.7460   -2.1010 o         1 MOL     -0.552931
     85 H33        -4.6290   -3.0600    0.3960 hn        1 MOL      0.241366
     86 H34        -2.9650   -5.0620    1.5950 h1        1 MOL      0.059125
     87 H35        -3.4980   -6.2640   -0.3990 hc        1 MOL      0.034901
     88 H36        -1.7740   -5.7480   -0.4310 hc        1 MOL      0.034901
     89 H37        -4.0370   -4.4160   -1.8940 hc        1 MOL      0.065269
     90 H38        -2.9540   -5.7380   -2.5890 hc        1 MOL      0.065269
     91 H39        -1.0060   -5.4160   -3.3790 hn        1 MOL      0.359218
     92 H40        -0.3100   -3.8030   -3.5040 hn        1 MOL      0.359218
     93 N9         -0.7070   -3.8670    1.0690 n         1 MOL     -0.362675
     94 C30         0.4110   -3.0080    1.3690 c3        1 MOL      0.060073
     95 C31         1.5840   -3.3800    0.4790 c         1 MOL      0.303131
     96 O16         2.1410   -4.4810    0.6240 o         1 MOL     -0.536550
     97 C32         0.7290   -3.1720    2.8530 c3        1 MOL      0.300489
     98 C33         2.0080   -2.5430    3.2860 c3        1 MOL     -0.252488
     99 C34        -0.3290   -2.5770    3.7810 c3        1 MOL     -0.252488
    100 H41        -0.6510   -4.8490    1.3160 hn        1 MOL      0.244445
    101 H42         0.1180   -1.9690    1.1970 h1        1 MOL      0.111018
    102 H43         0.7720   -4.2270    3.1250 hc        1 MOL     -0.051933
    103 H44         2.0950   -2.6260    4.3730 hc        1 MOL      0.044418
    104 H45         2.8680   -3.0540    2.8650 hc        1 MOL      0.044418
    105 H46         2.0230   -1.4870    3.0410 hc        1 MOL      0.044418
    106 H47        -0.5100   -1.5430    3.4980 hc        1 MOL      0.044418
    107 H48        -1.2150   -3.1920    3.6420 hc        1 MOL      0.044418
    108 H49        -0.0770   -2.7130    4.8440 hc        1 MOL      0.044418
    109 N10         1.9580   -2.4840   -0.4470 n         1 MOL     -0.072461
    110 C35         3.2340   -2.5810   -1.1170 c3        1 MOL      0.026292
    111 C36         4.4650   -2.1940   -0.2860 c         1 MOL      0.419285
    112 O17         4.3200   -1.5160    0.6910 o         1 MOL     -0.253730
    113 C37         3.1750   -1.6840   -2.4340 c3        1 MOL     -0.498878
    114 C38         2.1620   -2.1300   -3.4280 c         1 MOL      0.791157
    115 N11         1.0980   -1.4440   -3.5520 n         1 MOL     -0.741949
    116 O18         2.3420   -3.0610   -4.1580 o         1 MOL     -0.644764
    117 H50         1.3970   -1.6840   -0.6960 hn        1 MOL      0.078831
    118 H51         3.3620   -3.6150   -1.4360 h1        1 MOL      0.061374
    119 H52         4.1430   -1.8690   -2.9030 hc        1 MOL      0.151893
    120 H53         3.0350   -0.6860   -2.0360 hc        1 MOL      0.151893
    121 H54         0.9290   -0.6880   -2.9140 hn        1 MOL      0.362861
    122 H55         0.4560   -1.7230   -4.2820 hn        1 MOL      0.362861
    123 N12         5.7060   -2.5580   -0.7030 n         1 MOL     -0.619195
    124 C39         6.9420   -1.9190   -0.1800 c3        1 MOL      0.386373
    125 C40         6.8800   -0.4210   -0.0810 c         1 MOL      0.473768
    126 O19         7.0770    0.1240    1.0160 o         1 MOL     -0.562492
    127 C41         8.1120   -2.2870   -1.0790 c3        1 MOL     -0.323028
    128 C42         9.4680   -1.7940   -0.5870 ca        1 MOL      0.152469
    129 C43        10.0520   -2.3940    0.5740 ca        1 MOL     -0.240949
    130 C44        10.2380   -0.9030   -1.4050 ca        1 MOL     -0.240949
    131 C45        11.3880   -2.0450    0.9400 ca        1 MOL     -0.217368
    132 C46        11.5070   -0.4490   -0.9520 ca        1 MOL     -0.217368
    133 C47        12.0620   -1.0440    0.2220 ca        1 MOL      0.329898
    134 O20        13.3460   -0.7050    0.5770 oh        1 MOL     -0.532175
    135 H56         5.7140   -3.1150   -1.5490 hn        1 MOL      0.317722
    136 H57         7.0850   -2.2910    0.8250 h1        1 MOL      0.008467
    137 H58         7.9030   -1.8350   -2.0550 hc        1 MOL      0.084800
    138 H59         8.1910   -3.3660   -1.1230 hc        1 MOL      0.084800
    139 H60         9.5280   -3.0920    1.2070 ha        1 MOL      0.168709
    140 H61         9.8220   -0.5620   -2.3330 ha        1 MOL      0.168709
    141 H62        11.9220   -2.4520    1.7820 ha        1 MOL      0.141083
    142 H63        12.1110    0.2280   -1.5410 ha        1 MOL      0.141083
    143 H64        13.8280   -0.2420   -0.1130 ho        1 MOL      0.372161
    144 N13         6.3400    0.2620   -1.0400 n         1 MOL     -0.367299
    145 C48         6.3210    1.7790   -0.9940 c3        1 MOL      0.124992
    146 C49         5.3490    2.3110    0.0840 c         1 MOL      0.306521
    147 O21         5.5220    3.4100    0.5680 o         1 MOL     -0.501240
    148 C50         5.8980    2.2750   -2.3680 c3        1 MOL     -0.179681
    149 C51         5.9660    3.7580   -2.6950 c3        1 MOL     -0.021020
    150 C52         5.2790    3.9440   -4.0300 c         1 MOL      0.717123
    151 O22         4.1100    4.4130   -3.9940 o         1 MOL     -0.740956
    152 O23         5.9680    3.9130   -5.0410 o         1 MOL     -0.740956
    153 H65         6.1390   -0.1540   -1.9310 hn        1 MOL      0.233881
    154 H66         7.3070    2.1540   -0.7060 h1        1 MOL      0.071547
    155 H67         4.8650    1.9240   -2.4630 hc        1 MOL      0.015687
    156 H68         6.5660    1.8040   -3.0890 hc        1 MOL      0.015687
    157 H69         7.0210    4.0020   -2.8010 hc        1 MOL     -0.008121
    158 H70         5.6770    4.4370   -1.9040 hc        1 MOL     -0.008121
    159 N14         4.3070    1.5280    0.4170 n         1 MOL      0.017990
    160 C53         3.4410    1.7430    1.5800 c3        1 MOL      0.017172
    161 C54         3.9420    1.3330    2.9360 c         1 MOL      0.353084
    162 O24         3.6830    1.9800    3.9700 o         1 MOL     -0.542591
    163 C55         2.1100    1.1480    1.3690 c3        1 MOL      0.169854
    164 C56         1.5020    1.6240    0.0130 c3        1 MOL     -0.059166
    165 C57         0.2040    0.8600   -0.2830 c         1 MOL      0.685328
    166 O25        -0.8940    1.4130    0.0170 o         1 MOL     -0.667733
    167 O26         0.2460   -0.2360   -0.9100 o         1 MOL     -0.667733
    168 H71         4.2780    0.6130   -0.0110 hn        1 MOL      0.107108
    169 H72         3.3790    2.8340    1.5780 h1        1 MOL      0.043229
    170 H73         1.4260    1.5320    2.1220 hc        1 MOL     -0.031285
    171 H74         2.1460    0.0580    1.3920 hc        1 MOL     -0.031285
    172 H75         2.2280    1.5520   -0.7960 hc        1 MOL     -0.004700
    173 H76         1.1800    2.6490    0.1830 hc        1 MOL     -0.004700
    174 N15         4.7020    0.2350    2.9190 n         1 MOL      0.037372
    175 C58         5.3610   -0.3040    4.1210 c3        1 MOL     -0.212738
    176 H77         5.0630   -1.3430    4.2630 h1        1 MOL      0.074070
    177 H78         6.4430   -0.2490    3.9980 h1        1 MOL      0.074070
    178 H79         5.0630    0.2800    4.9920 h1        1 MOL      0.074070
    179 H80         4.8070   -0.2000    2.0090 hn        1 MOL     -0.024400
    180 Ca1        -2.5380   -0.2940   -1.1180 Ca        1 MOL      1.664207
    181 O27        -1.4310    0.6300   -3.5780 oh        1 MOL     -0.863136
    182 H81        -2.0700    1.3410   -3.4940 ho        1 MOL      0.401474
    183 H82        -1.5550    0.2960   -4.4650 ho        1 MOL      0.401474
@<TRIPOS>BOND
     1    1    2 1   
     2    1    4 1   
     3    1    5 1   
     4    1    6 1   
     5    2    3 2   
     6    2    7 1   
     7    7    8 1   
     8    7   15 1   
     9    8    9 1   
    10    8   11 1   
    11    8   16 1   
    12    9   10 2   
    13    9   19 1   
    14   11   12 1   
    15   11   17 1   
    16   11   18 1   
    17   12   13 1   
    18   12   14 1   
    19   19   20 1   
    20   19   27 1   
    21   20   21 1   
    22   20   23 1   
    23   20   28 1   
    24   21   22 2   
    25   21   38 1   
    26   23   24 1   
    27   23   25 1   
    28   23   29 1   
    29   24   26 1   
    30   24   30 1   
    31   24   31 1   
    32   25   32 1   
    33   25   33 1   
    34   25   34 1   
    35   26   35 1   
    36   26   36 1   
    37   26   37 1   
    38   38   39 1   
    39   38   46 1   
    40   39   40 1   
    41   39   42 1   
    42   39   47 1   
    43   40   41 2   
    44   40   50 1   
    45   42   43 1   
    46   42   48 1   
    47   42   49 1   
    48   43   44 1   
    49   43   45 1   
    50   50   51 1   
    51   50   54 1   
    52   51   52 1   
    53   51   55 1   
    54   51   56 1   
    55   52   53 2   
    56   52   57 1   
    57   57   58 1   
    58   57   65 1   
    59   58   59 1   
    60   58   61 1   
    61   58   66 1   
    62   59   60 2   
    63   59   69 1   
    64   61   62 1   
    65   61   67 1   
    66   61   68 1   
    67   62   63 1   
    68   62   64 1   
    69   69   70 1   
    70   69   73 1   
    71   70   71 1   
    72   70   74 1   
    73   70   75 1   
    74   71   72 2   
    75   71   76 1   
    76   76   77 1   
    77   76   85 1   
    78   77   78 1   
    79   77   80 1   
    80   77   86 1   
    81   78   79 2   
    82   78   93 1   
    83   80   81 1   
    84   80   87 1   
    85   80   88 1   
    86   81   82 1   
    87   81   89 1   
    88   81   90 1   
    89   82   83 1   
    90   82   84 2   
    91   83   91 1   
    92   83   92 1   
    93   93   94 1   
    94   93  100 1   
    95   94   95 1   
    96   94   97 1   
    97   94  101 1   
    98   95   96 2   
    99   95  109 1   
   100   97   98 1   
   101   97   99 1   
   102   97  102 1   
   103   98  103 1   
   104   98  104 1   
   105   98  105 1   
   106   99  106 1   
   107   99  107 1   
   108   99  108 1   
   109  109  110 1   
   110  109  117 1   
   111  110  111 1   
   112  110  113 1   
   113  110  118 1   
   114  111  112 2   
   115  111  123 1   
   116  113  114 1   
   117  113  119 1   
   118  113  120 1   
   119  114  115 1   
   120  114  116 2   
   121  115  121 1   
   122  115  122 1   
   123  123  124 1   
   124  123  135 1   
   125  124  125 1   
   126  124  127 1   
   127  124  136 1   
   128  125  126 2   
   129  125  144 1   
   130  127  128 1   
   131  127  137 1   
   132  127  138 1   
   133  128  129 ar  
   134  128  130 ar  
   135  129  131 ar  
   136  129  139 1   
   137  130  132 ar  
   138  130  140 1   
   139  131  133 ar  
   140  131  141 1   
   141  132  133 ar  
   142  132  142 1   
   143  133  134 1   
   144  134  143 1   
   145  144  145 1   
   146  144  153 1   
   147  145  146 1   
   148  145  148 1   
   149  145  154 1   
   150  146  147 2   
   151  146  159 1   
   152  148  149 1   
   153  148  155 1   
   154  148  156 1   
   155  149  150 1   
   156  149  157 1   
   157  149  158 1   
   158  150  151 1   
   159  150  152 1   
   160  159  160 1   
   161  159  168 1   
   162  160  161 1   
   163  160  163 1   
   164  160  169 1   
   165  161  162 2   
   166  161  174 1   
   167  163  164 1   
   168  163  170 1   
   169  163  171 1   
   170  164  165 1   
   171  164  172 1   
   172  164  173 1   
   173  165  166 1   
   174  165  167 1   
   175  174  175 1   
   176  174  179 1   
   177  175  176 1   
   178  175  177 1   
   179  175  178 1   
   180  181  182 1   
   181  181  183 1   
@<TRIPOS>SUBSTRUCTURE
     1 MOL         1 TEMP              0 ****  ****    0 ROOT
