@<TRIPOS>MOLECULE
MOL
  169   169     1     0     0
SMALL
resp


@<TRIPOS>ATOM
      1 C1          0.6420    3.6120    5.9370 c3        1 MOL     -0.417024
      2 C2          0.0440    3.6690    4.4990 c         1 MOL      0.669086
      3 O1          0.7390    3.9640    3.5300 o         1 MOL     -0.529579
      4 H1          1.6470    3.1920    5.8950 hc        1 MOL      0.107906
      5 H2          0.6860    4.6180    6.3530 hc        1 MOL      0.107906
      6 H3          0.0130    2.9850    6.5680 hc        1 MOL      0.107906
      7 N1         -1.2820    3.4010    4.2970 n         1 MOL     -0.555115
      8 C3         -1.8040    3.1140    2.9750 c3        1 MOL      0.095183
      9 C4         -2.2130    4.4080    2.1490 c         1 MOL      0.497761
     10 O2         -2.8350    5.3610    2.7490 o         1 MOL     -0.589405
     11 C5         -2.9650    2.0410    3.1200 c3        1 MOL     -0.247820
     12 C6         -3.3340    1.3190    1.8380 c         1 MOL      0.796479
     13 O3         -3.2780    1.8800    0.7220 o         1 MOL     -0.766564
     14 O4         -3.4490    0.0780    1.8280 o         1 MOL     -0.766564
     15 H4         -1.9460    3.5150    5.0530 hn        1 MOL      0.309139
     16 H5         -1.1070    2.5720    2.3240 h1        1 MOL      0.126768
     17 H6         -3.8740    2.4790    3.5380 hc        1 MOL      0.052415
     18 H7         -2.6480    1.2870    3.8510 hc        1 MOL      0.052415
     19 N2         -1.8620    4.4080    0.8730 n         1 MOL     -0.353121
     20 C7         -2.0100    5.6090    0.0490 c3        1 MOL      0.065074
     21 C8         -2.9590    5.3920   -1.0730 c         1 MOL      0.549881
     22 O5         -3.2480    6.3160   -1.8290 o         1 MOL     -0.600951
     23 C9         -0.6200    6.0710   -0.5050 c3        1 MOL     -0.012166
     24 H8         -1.3940    3.5830    0.5330 hn        1 MOL      0.232538
     25 H9         -2.3370    6.4660    0.6300 h1        1 MOL      0.059167
     26 H10        -0.7080    6.9420   -1.1550 hc        1 MOL      0.012341
     27 H11         0.1010    6.3700    0.2580 hc        1 MOL      0.012341
     28 H12        -0.1200    5.3630   -1.1630 hc        1 MOL      0.012341
     29 N3         -3.5780    4.2350   -1.2550 n         1 MOL     -0.381020
     30 C10        -4.4840    3.9280   -2.4020 c3        1 MOL     -0.010581
     31 C11        -5.8180    3.1620   -2.1580 c         1 MOL      0.414440
     32 O6         -6.6150    3.0790   -3.0770 o         1 MOL     -0.528861
     33 C12        -3.6970    3.1090   -3.3970 c3        1 MOL     -0.009999
     34 C13        -3.2410    1.8080   -2.8130 c         1 MOL      0.653894
     35 O7         -3.9740    1.0090   -2.1140 o         1 MOL     -0.682442
     36 O8         -2.0230    1.5370   -2.7700 o         1 MOL     -0.682442
     37 H13        -3.4480    3.4960   -0.5740 hn        1 MOL      0.214710
     38 H14        -4.8160    4.8470   -2.8970 h1        1 MOL      0.098279
     39 H15        -2.8060    3.6190   -3.7570 hc        1 MOL      0.010952
     40 H16        -4.3340    2.8680   -4.2530 hc        1 MOL      0.010952
     41 N4         -6.1220    2.7600   -0.9640 n         1 MOL     -0.212720
     42 C14        -7.3570    2.1100   -0.6020 c3        1 MOL     -0.245145
     43 C15        -7.5210    0.5980   -1.0140 c         1 MOL      0.703838
     44 O9         -8.6240    0.1770   -1.0410 o         1 MOL     -0.616332
     45 H17        -5.4410    2.9110   -0.2460 hn        1 MOL      0.230732
     46 H18        -8.1540    2.7120   -1.0400 h1        1 MOL      0.103727
     47 H19        -7.3720    2.2520    0.4750 h1        1 MOL      0.103727
     48 N5         -6.4380   -0.1290   -1.4100 n         1 MOL     -0.496782
     49 C16        -6.6030   -1.4550   -2.1220 c3        1 MOL      0.275966
     50 C17        -6.6170   -2.6540   -1.1630 c         1 MOL      0.369117
     51 O10        -6.7930   -3.7640   -1.5440 o         1 MOL     -0.521285
     52 C18        -5.5970   -1.6420   -3.1810 c3        1 MOL     -0.360287
     53 C19        -4.1450   -1.8440   -2.6660 c         1 MOL      0.746870
     54 N6         -3.2220   -1.8240   -3.6580 n         1 MOL     -0.706286
     55 O11        -3.9550   -1.8890   -1.4520 o         1 MOL     -0.673391
     56 H20        -5.5620    0.3250   -1.6180 hn        1 MOL      0.238623
     57 H21        -7.5370   -1.4760   -2.6850 h1        1 MOL      0.062047
     58 H22        -5.5350   -0.7620   -3.8200 hc        1 MOL      0.085635
     59 H23        -5.8580   -2.5080   -3.7840 hc        1 MOL      0.085635
     60 H24        -3.5940   -1.8140   -4.6010 hn        1 MOL      0.339655
     61 H25        -2.2710   -2.1010   -3.4740 hn        1 MOL      0.339655
     62 N7         -6.5130   -2.4590    0.1760 n         1 MOL     -0.323295
     63 C20        -6.6610   -3.5130    1.2280 c3        1 MOL      0.015385
     64 C21        -5.4540   -4.3260    1.5490 c         1 MOL      0.423377
     65 O12        -5.5670   -5.2290    2.3350 o         1 MOL     -0.562878
     66 H26        -6.4280   -1.5400    0.5990 hn        1 MOL      0.229694
     67 H27        -7.4840   -4.1640    0.9170 h1        1 MOL      0.068295
     68 H28        -7.1790   -3.1060    2.0960 h1        1 MOL      0.068295
     69 N8         -4.3270   -4.0750    0.8980 n         1 MOL     -0.191774
     70 C22        -3.0260   -4.6170    1.4800 c3        1 MOL     -0.032063
     71 C23        -1.8950   -3.5370    1.4490 c         1 MOL      0.555203
     72 O13        -2.1080   -2.5060    0.8150 o         1 MOL     -0.539814
     73 C24        -2.4870   -5.7530    0.6990 c3        1 MOL      0.300641
     74 C25        -3.4130   -6.9980    0.7240 c3        1 MOL     -0.412590
     75 O14        -2.2990   -5.2830   -0.7250 oh        1 MOL     -0.581825
     76 H29        -4.2770   -3.2260    0.3460 hn        1 MOL      0.242132
     77 H30        -3.1350   -4.9730    2.5050 h1        1 MOL      0.056001
     78 H31        -1.5280   -5.9600    1.1760 h1        1 MOL      0.033066
     79 H32        -3.1610   -5.4490   -1.1120 ho        1 MOL      0.370116
     80 H33        -4.3840   -6.7040    0.3170 hc        1 MOL      0.104185
     81 H34        -2.9480   -7.6980    0.0440 hc        1 MOL      0.104185
     82 H35        -3.5960   -7.4640    1.6870 hc        1 MOL      0.104185
     83 N9         -0.7130   -3.8160    2.0930 n         1 MOL     -0.475562
     84 C26         0.4970   -3.0150    1.9840 c3        1 MOL      0.056693
     85 C27         1.2890   -3.2910    0.7350 c         1 MOL      0.739300
     86 O15         1.6970   -4.4190    0.4720 o         1 MOL     -0.659066
     87 C28         1.4670   -3.1230    3.1810 c3        1 MOL     -0.099108
     88 C29         0.8400   -2.2330    4.2500 c3        1 MOL      0.389289
     89 C30         2.9840   -2.8970    2.9390 c3        1 MOL     -0.093742
     90 C31         1.6030   -2.3620    5.5330 c3        1 MOL     -0.228256
     91 H36        -0.6110   -4.6680    2.6310 hn        1 MOL      0.261318
     92 H37         0.2250   -1.9590    1.9160 h1        1 MOL      0.035529
     93 H38         1.3680   -4.1350    3.5630 hc        1 MOL      0.022186
     94 H39        -0.1990   -2.5160    4.3920 hc        1 MOL     -0.085321
     95 H40         0.8380   -1.1940    3.9260 hc        1 MOL     -0.085321
     96 H41         3.2390   -1.8350    2.8580 hc        1 MOL      0.021597
     97 H42         3.5300   -3.2680    3.8060 hc        1 MOL      0.021597
     98 H43         3.3700   -3.3880    2.0380 hc        1 MOL      0.021597
     99 H44         1.5240   -3.3610    5.9510 hc        1 MOL      0.025808
    100 H45         2.5770   -1.9030    5.3560 hc        1 MOL      0.025808
    101 H46         1.1370   -1.7040    6.2650 hc        1 MOL      0.025808
    102 N10         1.5440   -2.2660   -0.0340 n         1 MOL     -0.367833
    103 C32         2.4300   -2.1670   -1.1730 c3        1 MOL      0.154131
    104 C33         3.9070   -1.7910   -0.8150 c         1 MOL      0.438891
    105 O16         4.1950   -1.1410    0.2000 o         1 MOL     -0.331467
    106 C34         1.9340   -1.0700   -2.1700 c3        1 MOL     -0.226958
    107 C35         0.4910   -1.1340   -2.7480 c         1 MOL      0.680133
    108 O17        -0.4920   -1.1280   -1.9770 o         1 MOL     -0.668616
    109 O18         0.3480   -1.1820   -4.0100 o         1 MOL     -0.668616
    110 H47         1.1190   -1.4100    0.2830 hn        1 MOL      0.031622
    111 H48         2.5030   -3.1010   -1.7220 h1        1 MOL      0.046357
    112 H49         2.6030   -0.9780   -3.0290 hc        1 MOL      0.057973
    113 H50         2.0260   -0.0700   -1.7310 hc        1 MOL      0.057973
    114 N11         4.8810   -2.0990   -1.6870 n         1 MOL     -0.732556
    115 C36         6.3360   -1.6570   -1.5930 c3        1 MOL      0.541331
    116 C37         6.6230   -0.2580   -1.0360 c         1 MOL      0.205858
    117 O19         7.4840   -0.1360   -0.2040 o         1 MOL     -0.472741
    118 C38         7.1880   -2.0130   -2.8470 c3        1 MOL     -0.104578
    119 C39         8.6030   -1.5500   -2.7780 ca        1 MOL      0.066413
    120 C40         9.3880   -2.2540   -1.8260 ca        1 MOL     -0.188791
    121 C41         9.0800   -0.4100   -3.4900 ca        1 MOL     -0.188791
    122 C42        10.6860   -1.7930   -1.5600 ca        1 MOL     -0.102561
    123 C43        10.3420    0.0330   -3.2630 ca        1 MOL     -0.102561
    124 C44        11.1580   -0.6700   -2.2790 ca        1 MOL     -0.084192
    125 H51         4.5570   -2.3980   -2.5850 hn        1 MOL      0.341633
    126 H52         6.8230   -2.3450   -0.8950 h1        1 MOL     -0.006084
    127 H53         6.6400   -1.6510   -3.7180 hc        1 MOL      0.016520
    128 H54         7.0760   -3.0960   -2.8950 hc        1 MOL      0.016520
    129 H55         8.9360   -3.0250   -1.2220 ha        1 MOL      0.137355
    130 H56         8.4350    0.1670   -4.1340 ha        1 MOL      0.137355
    131 H57        11.2550   -2.3150   -0.8010 ha        1 MOL      0.115005
    132 H58        10.7510    0.9050   -3.7560 ha        1 MOL      0.115005
    133 H59        12.2080   -0.4340   -2.1960 ha        1 MOL      0.075599
    134 N12         6.0260    0.8490   -1.5120 n         1 MOL     -0.023487
    135 C45         6.1720    2.2030   -1.1090 c3        1 MOL      0.171684
    136 C46         5.6890    2.4020    0.3420 c         1 MOL      0.141787
    137 O20         6.2240    3.1620    1.1630 o         1 MOL     -0.476784
    138 C47         5.5130    3.1490   -2.0890 c3        1 MOL     -0.023031
    139 C48         5.3730    2.2840   -3.3070 c3        1 MOL      0.235008
    140 C49         5.1420    0.8900   -2.6850 c3        1 MOL     -0.281290
    141 H60         7.2220    2.5030   -1.0770 h1        1 MOL      0.022166
    142 H61         4.5420    3.4250   -1.6690 hc        1 MOL      0.003100
    143 H62         6.2010    3.9750   -2.2650 hc        1 MOL      0.003100
    144 H63         4.7260    2.6720   -4.0910 hc        1 MOL     -0.048833
    145 H64         6.3840    2.1850   -3.7250 hc        1 MOL     -0.048833
    146 H65         4.1070    0.9040   -2.3450 h1        1 MOL      0.080884
    147 H66         5.3660    0.1440   -3.4490 h1        1 MOL      0.080884
    148 N13         4.5640    1.6970    0.6820 n         1 MOL      0.076078
    149 C50         3.9440    1.8280    2.0370 c3        1 MOL     -0.274258
    150 C51         4.7340    1.0070    3.1420 c         1 MOL      0.454630
    151 O21         4.7370    1.4940    4.2900 o         1 MOL     -0.551537
    152 C52         2.4810    1.2740    1.9230 c3        1 MOL     -0.132475
    153 C53         1.6510    1.9660    0.8350 c3        1 MOL      0.143941
    154 C54         0.4070    1.2410    0.5250 c         1 MOL      0.443683
    155 O22         0.1690    0.0490    0.7540 o         1 MOL     -0.585779
    156 O23        -0.4300    1.7880   -0.1940 o         1 MOL     -0.585779
    157 H67         4.0570    1.1680   -0.0120 hn        1 MOL      0.198854
    158 H68         3.9790    2.8990    2.2510 h1        1 MOL      0.150577
    159 H69         2.0350    1.3450    2.9170 hc        1 MOL      0.092938
    160 H70         2.5270    0.2030    1.7370 hc        1 MOL      0.092938
    161 H71         2.3360    1.9510   -0.0170 hc        1 MOL     -0.035305
    162 H72         1.3890    2.9780    1.1230 hc        1 MOL     -0.035305
    163 N14         5.3770   -0.0630    2.7110 n         1 MOL      0.038990
    164 C55         6.3810   -0.7460    3.5160 c3        1 MOL     -0.151229
    165 H73         5.9130   -1.1480    4.4150 h1        1 MOL      0.057859
    166 H74         6.8180   -1.5610    2.9390 h1        1 MOL      0.057859
    167 H75         7.1620   -0.0400    3.7990 h1        1 MOL      0.057859
    168 H76         5.2050   -0.4170    1.7920 hn        1 MOL      0.010173
    169 Ca1        -2.1760   -0.0870   -0.5040 Ca        1 MOL      1.709705
@<TRIPOS>BOND
     1    1    2 1   
     2    1    4 1   
     3    1    5 1   
     4    1    6 1   
     5    2    3 2   
     6    2    7 1   
     7    7    8 1   
     8    7   15 1   
     9    8    9 1   
    10    8   11 1   
    11    8   16 1   
    12    9   10 2   
    13    9   19 1   
    14   11   12 1   
    15   11   17 1   
    16   11   18 1   
    17   12   13 1   
    18   12   14 1   
    19   19   20 1   
    20   19   24 1   
    21   20   21 1   
    22   20   23 1   
    23   20   25 1   
    24   21   22 2   
    25   21   29 1   
    26   23   26 1   
    27   23   27 1   
    28   23   28 1   
    29   29   30 1   
    30   29   37 1   
    31   30   31 1   
    32   30   33 1   
    33   30   38 1   
    34   31   32 2   
    35   31   41 1   
    36   33   34 1   
    37   33   39 1   
    38   33   40 1   
    39   34   35 1   
    40   34   36 1   
    41   41   42 1   
    42   41   45 1   
    43   42   43 1   
    44   42   46 1   
    45   42   47 1   
    46   43   44 2   
    47   43   48 1   
    48   48   49 1   
    49   48   56 1   
    50   49   50 1   
    51   49   52 1   
    52   49   57 1   
    53   50   51 2   
    54   50   62 1   
    55   52   53 1   
    56   52   58 1   
    57   52   59 1   
    58   53   54 1   
    59   53   55 2   
    60   54   60 1   
    61   54   61 1   
    62   62   63 1   
    63   62   66 1   
    64   63   64 1   
    65   63   67 1   
    66   63   68 1   
    67   64   65 2   
    68   64   69 1   
    69   69   70 1   
    70   69   76 1   
    71   70   71 1   
    72   70   73 1   
    73   70   77 1   
    74   71   72 2   
    75   71   83 1   
    76   73   74 1   
    77   73   75 1   
    78   73   78 1   
    79   74   80 1   
    80   74   81 1   
    81   74   82 1   
    82   75   79 1   
    83   83   84 1   
    84   83   91 1   
    85   84   85 1   
    86   84   87 1   
    87   84   92 1   
    88   85   86 2   
    89   85  102 1   
    90   87   88 1   
    91   87   89 1   
    92   87   93 1   
    93   88   90 1   
    94   88   94 1   
    95   88   95 1   
    96   89   96 1   
    97   89   97 1   
    98   89   98 1   
    99   90   99 1   
   100   90  100 1   
   101   90  101 1   
   102  102  103 1   
   103  102  110 1   
   104  103  104 1   
   105  103  106 1   
   106  103  111 1   
   107  104  105 2   
   108  104  114 1   
   109  106  107 1   
   110  106  112 1   
   111  106  113 1   
   112  107  108 1   
   113  107  109 1   
   114  114  115 1   
   115  114  125 1   
   116  115  116 1   
   117  115  118 1   
   118  115  126 1   
   119  116  117 2   
   120  116  134 1   
   121  118  119 1   
   122  118  127 1   
   123  118  128 1   
   124  119  120 ar  
   125  119  121 ar  
   126  120  122 ar  
   127  120  129 1   
   128  121  123 ar  
   129  121  130 1   
   130  122  124 ar  
   131  122  131 1   
   132  123  124 ar  
   133  123  132 1   
   134  124  133 1   
   135  134  135 1   
   136  134  140 1   
   137  135  136 1   
   138  135  138 1   
   139  135  141 1   
   140  136  137 2   
   141  136  148 1   
   142  138  139 1   
   143  138  142 1   
   144  138  143 1   
   145  139  140 1   
   146  139  144 1   
   147  139  145 1   
   148  140  146 1   
   149  140  147 1   
   150  148  149 1   
   151  148  157 1   
   152  149  150 1   
   153  149  152 1   
   154  149  158 1   
   155  150  151 2   
   156  150  163 1   
   157  152  153 1   
   158  152  159 1   
   159  152  160 1   
   160  153  154 1   
   161  153  161 1   
   162  153  162 1   
   163  154  155 1   
   164  154  156 1   
   165  163  164 1   
   166  163  168 1   
   167  164  165 1   
   168  164  166 1   
   169  164  167 1   
@<TRIPOS>SUBSTRUCTURE
     1 MOL         1 TEMP              0 ****  ****    0 ROOT
