@<TRIPOS>MOLECULE
MOL
  189   185     1     0     0
SMALL
resp


@<TRIPOS>ATOM
      1 C1          0.6550    1.9430    5.5550 c3        1 MOL     -0.301846
      2 C2         -0.0190    2.0780    4.1700 c         1 MOL      0.618822
      3 O1          0.6430    2.4910    3.2010 o         1 MOL     -0.576028
      4 H1          1.1020    0.9540    5.6460 hc        1 MOL      0.079165
      5 H2          1.4300    2.7030    5.6590 hc        1 MOL      0.079165
      6 H3         -0.0920    2.0770    6.3380 hc        1 MOL      0.079165
      7 N1         -1.2730    1.7440    4.0700 n         1 MOL     -0.481821
      8 C3         -1.9020    1.5010    2.7400 c3        1 MOL      0.129530
      9 C4         -2.3960    2.8230    2.1170 c         1 MOL      0.464678
     10 O2         -3.4370    3.3640    2.5350 o         1 MOL     -0.527485
     11 C5         -3.0130    0.3830    2.7750 c3        1 MOL     -0.284859
     12 C6         -3.9070    0.1730    1.4940 c         1 MOL      0.764689
     13 O3         -3.3950    0.4600    0.3750 o         1 MOL     -0.672380
     14 O4         -5.0620   -0.3550    1.6950 o         1 MOL     -0.672380
     15 H4         -1.7670    1.5020    4.9160 hn        1 MOL      0.311146
     16 H5         -1.1330    1.2520    2.0070 h1        1 MOL      0.046224
     17 H6         -3.7870    0.6390    3.4940 hc        1 MOL      0.055477
     18 H7         -2.6010   -0.5830    3.0460 hc        1 MOL      0.055477
     19 N2         -1.5920    3.4620    1.2380 n         1 MOL     -0.336324
     20 C7         -1.8050    4.8270    0.8820 c3        1 MOL      0.055980
     21 C8         -3.0060    5.0230   -0.1190 c         1 MOL      0.472899
     22 O5         -3.7090    6.0590   -0.0440 o         1 MOL     -0.580823
     23 C9         -0.4630    5.3320    0.3800 c3        1 MOL     -0.014109
     24 C10        -0.3910    6.8790    0.4090 c3        1 MOL     -0.039021
     25 C11        -0.5370    7.5030    1.8130 c3        1 MOL      0.159823
     26 C12         0.2160    8.8400    1.7710 c3        1 MOL     -0.034890
     27 N3          0.4240    9.3890    3.1970 n4        1 MOL     -0.356910
     28 H8         -0.9010    2.9320    0.7230 hn        1 MOL      0.260107
     29 H9         -2.1340    5.3770    1.7610 h1        1 MOL      0.033119
     30 H10        -0.3120    5.0440   -0.6590 hc        1 MOL      0.036708
     31 H11         0.2900    4.9500    1.0740 hc        1 MOL      0.036708
     32 H12        -1.0960    7.3520   -0.2610 hc        1 MOL     -0.000002
     33 H13         0.6440    7.0370    0.0860 hc        1 MOL     -0.000002
     34 H14        -0.0070    6.8360    2.4820 hc        1 MOL      0.002819
     35 H15        -1.6030    7.5060    2.0390 hc        1 MOL      0.002819
     36 H16        -0.4450    9.5540    1.2700 hx        1 MOL      0.092620
     37 H17         1.1860    8.7770    1.2890 hx        1 MOL      0.092620
     38 H18         1.1970    8.9610    3.7060 hn        1 MOL      0.320118
     39 H19         0.7290   10.3540    3.1310 hn        1 MOL      0.320118
     40 H20        -0.4550    9.3830    3.6950 hn        1 MOL      0.320118
     41 N4         -3.2350    4.0990   -1.0070 n         1 MOL     -0.291497
     42 C13        -4.3870    4.0980   -1.9490 c3        1 MOL      0.034739
     43 C14        -5.5040    3.1010   -1.6080 c         1 MOL      0.462364
     44 O6         -6.5030    3.1090   -2.3590 o         1 MOL     -0.527415
     45 C15        -3.8200    3.8480   -3.3800 c3        1 MOL     -0.280892
     46 C16        -3.0420    2.6200   -3.5430 c         1 MOL      0.837492
     47 O7         -2.2210    2.5560   -4.5240 o         1 MOL     -0.713558
     48 O8         -3.1740    1.6470   -2.7280 o         1 MOL     -0.713558
     49 H21        -2.5900    3.3310   -1.0480 hn        1 MOL      0.198692
     50 H22        -4.9390    5.0280   -1.8620 h1        1 MOL      0.100962
     51 H23        -3.2120    4.7070   -3.6460 hc        1 MOL      0.071702
     52 H24        -4.6700    3.8960   -4.0510 hc        1 MOL      0.071702
     53 N5         -5.4790    2.3740   -0.4760 n         1 MOL     -0.207565
     54 C17        -6.7490    1.7900   -0.0030 c3        1 MOL     -0.314771
     55 C18        -7.2480    0.5020   -0.7070 c         1 MOL      0.521627
     56 O9         -8.4500    0.2570   -0.9000 o         1 MOL     -0.575126
     57 H25        -4.6340    2.1870    0.0450 hn        1 MOL      0.203518
     58 H26        -7.4310    2.6320   -0.1830 h1        1 MOL      0.139322
     59 H27        -6.6340    1.4950    1.0360 h1        1 MOL      0.139322
     60 N6         -6.3080   -0.2870   -1.2180 n         1 MOL     -0.051351
     61 C19        -6.7390   -1.5630   -1.8630 c3        1 MOL     -0.207986
     62 C20        -7.0330   -2.7070   -0.8800 c         1 MOL      0.499163
     63 O10        -7.2930   -3.9090   -1.1990 o         1 MOL     -0.534488
     64 C21        -5.7440   -1.9460   -3.0360 c3        1 MOL     -0.156696
     65 C22        -4.3410   -1.7720   -2.7410 c         1 MOL      0.747110
     66 O11        -3.9100   -2.2040   -1.6240 o         1 MOL     -0.695684
     67 O12        -3.6330   -1.1250   -3.4850 o         1 MOL     -0.695684
     68 H28        -5.3190   -0.1670   -1.1140 hn        1 MOL      0.099771
     69 H29        -7.7010   -1.3850   -2.3570 h1        1 MOL      0.159610
     70 H30        -5.9640   -1.2960   -3.8880 hc        1 MOL      0.055171
     71 H31        -5.7870   -2.9740   -3.3900 hc        1 MOL      0.055171
     72 N7         -6.9410   -2.3840    0.4420 n         1 MOL     -0.377304
     73 C23        -6.8860   -3.4240    1.4390 c3        1 MOL     -0.075296
     74 C24        -5.5860   -4.2840    1.4960 c         1 MOL      0.444926
     75 O13        -5.6670   -5.3830    2.0960 o         1 MOL     -0.554735
     76 H32        -6.6240   -1.4460    0.6280 hn        1 MOL      0.317752
     77 H33        -7.7350   -4.1110    1.4380 h1        1 MOL      0.091080
     78 H34        -6.9690   -2.9090    2.3960 h1        1 MOL      0.091080
     79 N8         -4.4630   -3.8660    0.8450 n         1 MOL     -0.068543
     80 C25        -3.1300   -4.5710    0.8020 c3        1 MOL     -0.384222
     81 C26        -1.9480   -3.6240    0.9010 c         1 MOL      0.803712
     82 O14        -2.0160   -2.4290    0.5120 o         1 MOL     -0.645375
     83 C27        -2.9700   -5.4570   -0.4630 c3        1 MOL      0.503709
     84 C28        -4.0870   -6.3800   -0.7600 c3        1 MOL     -0.405816
     85 O15        -2.8250   -4.7360   -1.6680 oh        1 MOL     -0.660866
     86 H35        -4.5440   -3.0070    0.3180 hn        1 MOL      0.082230
     87 H36        -3.1940   -5.2110    1.6840 h1        1 MOL      0.122199
     88 H37        -2.0740   -6.0600   -0.3530 h1        1 MOL     -0.001000
     89 H38        -3.2690   -3.8850   -1.6560 ho        1 MOL      0.431687
     90 H39        -5.0370   -5.8320   -0.6920 hc        1 MOL      0.099860
     91 H40        -3.9230   -6.9260   -1.6840 hc        1 MOL      0.099860
     92 H41        -4.1410   -7.1050    0.0550 hc        1 MOL      0.099860
     93 N9         -0.7830   -4.1640    1.2590 n         1 MOL     -0.694919
     94 C29         0.4540   -3.4770    1.5380 c3        1 MOL      0.233975
     95 C30         1.5080   -3.8780    0.5730 c         1 MOL      0.501771
     96 O16         1.6890   -5.0590    0.2770 o         1 MOL     -0.567863
     97 C31         0.8110   -3.5940    3.0280 c3        1 MOL      0.097315
     98 C32        -0.0590   -2.6100    3.9060 c3        1 MOL      0.207803
     99 C33         2.2600   -3.3650    3.4030 c3        1 MOL     -0.419773
    100 C34        -0.1540   -2.9670    5.3470 c3        1 MOL     -0.385724
    101 H42        -0.6460   -5.1300    1.5320 hn        1 MOL      0.303796
    102 H43         0.2070   -2.4410    1.3090 h1        1 MOL     -0.009331
    103 H44         0.5410   -4.6180    3.2890 hc        1 MOL      0.001344
    104 H45        -1.0770   -2.6780    3.5140 hc        1 MOL      0.009408
    105 H46         0.1750   -1.5620    3.7370 hc        1 MOL      0.009408
    106 H47         2.3840   -3.8570    4.3600 hc        1 MOL      0.085716
    107 H48         2.9520   -3.7490    2.6520 hc        1 MOL      0.085716
    108 H49         2.3690   -2.3040    3.6650 hc        1 MOL      0.085716
    109 H50        -1.0640   -2.5910    5.8140 hc        1 MOL      0.087062
    110 H51        -0.2990   -4.0400    5.4620 hc        1 MOL      0.087062
    111 H52         0.7600   -2.6540    5.8440 hc        1 MOL      0.087062
    112 N10         2.4100   -2.9780    0.1650 n         1 MOL     -0.231059
    113 C35         3.5990   -3.1800   -0.7010 c3        1 MOL      0.041703
    114 C36         4.9200   -2.8940    0.0340 c         1 MOL      0.466902
    115 O17         5.0080   -2.2070    1.0970 o         1 MOL     -0.446496
    116 C37         3.6000   -2.4330   -2.0410 c3        1 MOL      0.039615
    117 C38         2.2490   -2.5130   -2.8230 c3        1 MOL     -0.297550
    118 O18         3.9560   -1.0930   -1.7980 oh        1 MOL     -0.320152
    119 H53         2.0590   -2.0350    0.1260 hn        1 MOL      0.368656
    120 H54         3.5510   -4.2450   -0.9240 h1        1 MOL      0.054889
    121 H55         4.2740   -2.9680   -2.7010 h1        1 MOL      0.033821
    122 H56         3.9690   -0.6180   -2.6260 ho        1 MOL      0.321057
    123 H57         1.5630   -1.7330   -2.5140 hc        1 MOL      0.098542
    124 H58         2.4030   -2.5660   -3.8990 hc        1 MOL      0.098542
    125 H59         1.8230   -3.4950   -2.6190 hc        1 MOL      0.098542
    126 N11         6.0920   -3.2680   -0.6240 n         1 MOL     -0.420623
    127 C39         7.4790   -2.7920   -0.1440 c3        1 MOL     -0.036437
    128 C40         7.6480   -1.2900   -0.0080 c         1 MOL      0.394768
    129 O19         8.2670   -0.8450    0.9760 o         1 MOL     -0.521941
    130 C41         8.6680   -3.5250   -0.8160 c3        1 MOL      0.260165
    131 C42         8.7590   -5.0360   -0.4750 c3        1 MOL     -0.385850
    132 O20         8.6030   -3.4490   -2.2130 oh        1 MOL     -0.649338
    133 H60         6.0320   -3.8680   -1.4370 hn        1 MOL      0.287166
    134 H61         7.6360   -3.0740    0.9020 h1        1 MOL      0.120370
    135 H62         9.5440   -2.9490   -0.5510 h1        1 MOL      0.056140
    136 H63         9.0680   -4.1770   -2.6340 ho        1 MOL      0.416072
    137 H64         7.8560   -5.5180   -0.8460 hc        1 MOL      0.113293
    138 H65         9.6820   -5.5110   -0.7940 hc        1 MOL      0.113293
    139 H66         8.7810   -5.1490    0.6070 hc        1 MOL      0.113293
    140 N12         7.0290   -0.4870   -0.8340 n         1 MOL     -0.082770
    141 C43         7.0290    0.9670   -0.8900 c3        1 MOL     -0.137064
    142 C44         6.0480    1.5230    0.1170 c         1 MOL      0.544519
    143 O21         6.3470    2.5300    0.7550 o         1 MOL     -0.549250
    144 C45         6.5740    1.4950   -2.2870 c3        1 MOL     -0.189076
    145 C46         6.7340    3.0200   -2.4120 c3        1 MOL     -0.205341
    146 C47         6.4660    3.3420   -3.8950 c3        1 MOL      0.158257
    147 C48         7.6980    3.2410   -4.7850 c3        1 MOL      0.062772
    148 N13         7.5320    3.7720   -6.1600 n4        1 MOL     -0.452681
    149 H67         6.5780   -0.8970   -1.6320 hn        1 MOL      0.139217
    150 H68         7.9960    1.3720   -0.5860 h1        1 MOL      0.134223
    151 H69         5.6570    1.0840   -2.7180 hc        1 MOL      0.078711
    152 H70         7.2660    0.9830   -2.9620 hc        1 MOL      0.078711
    153 H71         7.7100    3.4260   -2.1380 hc        1 MOL      0.100503
    154 H72         5.9370    3.5020   -1.8540 hc        1 MOL      0.100503
    155 H73         6.1460    4.3810   -4.0240 hc        1 MOL     -0.002662
    156 H74         5.6300    2.8030   -4.3370 hc        1 MOL     -0.002662
    157 H75         8.0190    2.2070   -4.7880 hx        1 MOL      0.057625
    158 H76         8.4530    3.9090   -4.3660 hx        1 MOL      0.057625
    159 H77         6.6430    3.4800   -6.5260 hn        1 MOL      0.338528
    160 H78         7.6550    4.7740   -6.1690 hn        1 MOL      0.338528
    161 H79         8.3070    3.3320   -6.6290 hn        1 MOL      0.338528
    162 N14         4.8930    0.8670    0.4270 n         1 MOL     -0.054596
    163 C49         4.0710    1.2850    1.6010 c3        1 MOL     -0.342992
    164 C50         4.6980    1.0440    2.9890 c         1 MOL      0.674023
    165 O22         4.6140    1.8880    3.8310 o         1 MOL     -0.574527
    166 C51         2.7190    0.5740    1.4090 c3        1 MOL      0.407011
    167 C52         1.9650    1.1540    0.1750 c3        1 MOL     -0.270714
    168 C53         0.6740    0.4850   -0.1580 c         1 MOL      0.891826
    169 O23         0.6240   -0.7250   -0.4070 o         1 MOL     -0.829995
    170 O24        -0.3630    1.1690   -0.3560 o         1 MOL     -0.829995
    171 H80         4.7880   -0.0600    0.0430 hn        1 MOL     -0.092706
    172 H81         3.8820    2.3560    1.5070 h1        1 MOL      0.146460
    173 H82         2.0950    0.7310    2.2780 hc        1 MOL     -0.125532
    174 H83         2.8950   -0.4780    1.1870 hc        1 MOL     -0.125532
    175 H84         2.6280    1.0520   -0.6920 hc        1 MOL      0.023304
    176 H85         1.7230    2.1730    0.4890 hc        1 MOL      0.023304
    177 N15         5.3470   -0.0640    3.2190 n         1 MOL     -0.310410
    178 C54         6.2960   -0.2260    4.3590 c3        1 MOL     -0.372304
    179 H86         6.7190   -1.2300    4.3400 h1        1 MOL      0.144962
    180 H87         7.0970    0.5080    4.2720 h1        1 MOL      0.144962
    181 H88         5.7650   -0.0740    5.2990 h1        1 MOL      0.144962
    182 H89         5.4600   -0.7040    2.4450 hn        1 MOL      0.305816
    183 Ca1        -1.9180   -0.5410   -1.5570 Ca        1 MOL      1.833370
    184 O25        -1.0460   -2.6750   -2.9200 oh        1 MOL     -0.873263
    185 H90        -1.4470   -3.5450   -3.0100 ho        1 MOL      0.394740
    186 H91        -0.6020   -2.5230   -3.7490 ho        1 MOL      0.394740
    187 O26        -0.6750    0.4240   -3.7080 oh        1 MOL     -0.873263
    188 H92        -1.2220    1.0810   -4.1270 ho        1 MOL      0.394740
    189 H93         0.0400    0.2740   -4.3270 ho        1 MOL      0.394740
@<TRIPOS>BOND
     1    1    2 1   
     2    1    4 1   
     3    1    5 1   
     4    1    6 1   
     5    2    3 2   
     6    2    7 1   
     7    7    8 1   
     8    7   15 1   
     9    8    9 1   
    10    8   11 1   
    11    8   16 1   
    12    9   10 2   
    13    9   19 1   
    14   11   12 1   
    15   11   17 1   
    16   11   18 1   
    17   12   13 1   
    18   12   14 1   
    19   19   20 1   
    20   19   28 1   
    21   20   21 1   
    22   20   23 1   
    23   20   29 1   
    24   21   22 2   
    25   21   41 1   
    26   23   24 1   
    27   23   30 1   
    28   23   31 1   
    29   24   25 1   
    30   24   32 1   
    31   24   33 1   
    32   25   26 1   
    33   25   34 1   
    34   25   35 1   
    35   26   27 1   
    36   26   36 1   
    37   26   37 1   
    38   27   38 1   
    39   27   39 1   
    40   27   40 1   
    41   41   42 1   
    42   41   49 1   
    43   42   43 1   
    44   42   45 1   
    45   42   50 1   
    46   43   44 2   
    47   43   53 1   
    48   45   46 1   
    49   45   51 1   
    50   45   52 1   
    51   46   47 1   
    52   46   48 1   
    53   53   54 1   
    54   53   57 1   
    55   54   55 1   
    56   54   58 1   
    57   54   59 1   
    58   55   56 2   
    59   55   60 1   
    60   60   61 1   
    61   60   68 1   
    62   61   62 1   
    63   61   64 1   
    64   61   69 1   
    65   62   63 2   
    66   62   72 1   
    67   64   65 1   
    68   64   70 1   
    69   64   71 1   
    70   65   66 1   
    71   65   67 1   
    72   72   73 1   
    73   72   76 1   
    74   73   74 1   
    75   73   77 1   
    76   73   78 1   
    77   74   75 2   
    78   74   79 1   
    79   79   80 1   
    80   79   86 1   
    81   80   81 1   
    82   80   83 1   
    83   80   87 1   
    84   81   82 2   
    85   81   93 1   
    86   83   84 1   
    87   83   85 1   
    88   83   88 1   
    89   84   90 1   
    90   84   91 1   
    91   84   92 1   
    92   85   89 1   
    93   93   94 1   
    94   93  101 1   
    95   94   95 1   
    96   94   97 1   
    97   94  102 1   
    98   95   96 2   
    99   95  112 1   
   100   97   98 1   
   101   97   99 1   
   102   97  103 1   
   103   98  100 1   
   104   98  104 1   
   105   98  105 1   
   106   99  106 1   
   107   99  107 1   
   108   99  108 1   
   109  100  109 1   
   110  100  110 1   
   111  100  111 1   
   112  112  113 1   
   113  112  119 1   
   114  113  114 1   
   115  113  116 1   
   116  113  120 1   
   117  114  115 2   
   118  114  126 1   
   119  116  117 1   
   120  116  118 1   
   121  116  121 1   
   122  117  123 1   
   123  117  124 1   
   124  117  125 1   
   125  118  122 1   
   126  126  127 1   
   127  126  133 1   
   128  127  128 1   
   129  127  130 1   
   130  127  134 1   
   131  128  129 2   
   132  128  140 1   
   133  130  131 1   
   134  130  132 1   
   135  130  135 1   
   136  131  137 1   
   137  131  138 1   
   138  131  139 1   
   139  132  136 1   
   140  140  141 1   
   141  140  149 1   
   142  141  142 1   
   143  141  144 1   
   144  141  150 1   
   145  142  143 2   
   146  142  162 1   
   147  144  145 1   
   148  144  151 1   
   149  144  152 1   
   150  145  146 1   
   151  145  153 1   
   152  145  154 1   
   153  146  147 1   
   154  146  155 1   
   155  146  156 1   
   156  147  148 1   
   157  147  157 1   
   158  147  158 1   
   159  148  159 1   
   160  148  160 1   
   161  148  161 1   
   162  162  163 1   
   163  162  171 1   
   164  163  164 1   
   165  163  166 1   
   166  163  172 1   
   167  164  165 2   
   168  164  177 1   
   169  166  167 1   
   170  166  173 1   
   171  166  174 1   
   172  167  168 1   
   173  167  175 1   
   174  167  176 1   
   175  168  169 1   
   176  168  170 1   
   177  177  178 1   
   178  177  182 1   
   179  178  179 1   
   180  178  180 1   
   181  178  181 1   
   182  184  185 1   
   183  184  186 1   
   184  187  188 1   
   185  187  189 1   
@<TRIPOS>SUBSTRUCTURE
     1 MOL         1 TEMP              0 ****  ****    0 ROOT
