@<TRIPOS>MOLECULE
MOL
  175   173     1     0     0
SMALL
resp


@<TRIPOS>ATOM
      1 C1         -0.3910   -3.6000    5.5910 c3        1 MOL     -0.432534
      2 C2          0.0910   -3.5190    4.1820 c         1 MOL      0.716426
      3 O1         -0.4990   -3.9410    3.2190 o         1 MOL     -0.537481
      4 H1          0.0880   -2.8210    6.1830 hc        1 MOL      0.105482
      5 H2         -1.4720   -3.4610    5.6140 hc        1 MOL      0.105482
      6 H3         -0.1410   -4.5760    6.0060 hc        1 MOL      0.105482
      7 N1          1.3040   -2.9980    4.0580 n         1 MOL     -0.577405
      8 C3          2.0920   -2.8880    2.8910 c3        1 MOL      0.144788
      9 C4          2.2740   -4.2450    2.0810 c         1 MOL      0.577979
     10 O2          2.5160   -5.3120    2.6620 o         1 MOL     -0.593491
     11 C5          3.5000   -2.3320    3.1530 c3        1 MOL     -0.325873
     12 C6          4.3050   -2.2120    1.8340 c         1 MOL      0.629965
     13 O3          3.6950   -1.9740    0.7680 o         1 MOL     -0.616858
     14 O4          5.5130   -2.3050    1.8270 o         1 MOL     -0.616858
     15 H4          1.5920   -2.5490    4.9100 hn        1 MOL      0.294871
     16 H5          1.5780   -2.2790    2.1450 h1        1 MOL      0.040196
     17 H6          4.0780   -2.9410    3.8510 hc        1 MOL      0.073539
     18 H7          3.4710   -1.3360    3.5940 hc        1 MOL      0.073539
     19 N2          2.1490   -4.2170    0.7450 n         1 MOL     -0.343061
     20 C7          2.2790   -5.2570   -0.1910 c3        1 MOL      0.237257
     21 C8          3.4470   -5.0320   -1.2170 c         1 MOL      0.371088
     22 O5          3.8020   -6.0320   -1.8580 o         1 MOL     -0.551725
     23 C9          0.8770   -5.4570   -0.8940 c3        1 MOL     -0.180531
     24 H8          2.1430   -3.2570    0.4270 hn        1 MOL      0.241231
     25 H9          2.4990   -6.1380    0.4080 h1        1 MOL      0.006625
     26 H10         0.1650   -5.7500   -0.1190 hc        1 MOL      0.044556
     27 H11         0.5230   -4.5840   -1.4480 hc        1 MOL      0.044556
     28 H12         0.9390   -6.2770   -1.6010 hc        1 MOL      0.044556
     29 N3          3.9360   -3.7540   -1.4800 n         1 MOL     -0.279908
     30 C10         4.7330   -3.4960   -2.6450 c3        1 MOL      0.128977
     31 C11         5.8620   -2.4270   -2.3310 c         1 MOL      0.413535
     32 O6          6.6200   -2.0820   -3.2670 o         1 MOL     -0.577866
     33 C12         3.6970   -3.0470   -3.6960 c3        1 MOL     -0.088649
     34 C13         2.9430   -1.7430   -3.3320 c         1 MOL      0.662278
     35 O7          3.2300   -1.0700   -2.3460 o         1 MOL     -0.694029
     36 O8          2.0260   -1.3150   -4.1200 o         1 MOL     -0.694029
     37 H13         3.5420   -3.0160   -0.9170 hn        1 MOL      0.155739
     38 H14         5.1860   -4.4520   -2.9070 h1        1 MOL      0.045059
     39 H15         2.9570   -3.8160   -3.9180 hc        1 MOL      0.013824
     40 H16         4.2550   -2.8720   -4.6160 hc        1 MOL      0.013824
     41 N4          6.0600   -1.9730   -1.1150 n         1 MOL     -0.188611
     42 C14         7.3200   -1.3570   -0.6720 c3        1 MOL     -0.071704
     43 C15         7.3210    0.1700   -0.9230 c         1 MOL      0.452488
     44 O9          8.3880    0.7400   -0.6880 o         1 MOL     -0.604405
     45 H17         5.4650   -2.1830   -0.3260 hn        1 MOL      0.108556
     46 H18         8.1560   -1.8720   -1.1610 h1        1 MOL      0.084070
     47 H19         7.5530   -1.4490    0.3900 h1        1 MOL      0.084070
     48 N5          6.2350    0.6550   -1.4540 n         1 MOL     -0.060763
     49 C16         6.1840    2.0040   -2.0680 c3        1 MOL     -0.209362
     50 C17         6.0800    3.1930   -1.0710 c         1 MOL      0.465632
     51 O10         5.8640    4.3680   -1.4310 o         1 MOL     -0.535794
     52 C18         5.0860    2.0970   -3.1580 c3        1 MOL     -0.001791
     53 C19         3.6660    2.2250   -2.5760 c         1 MOL      0.563935
     54 N6          2.7170    2.2160   -3.4570 n         1 MOL     -0.623207
     55 O11         3.4380    2.2130   -1.3610 o         1 MOL     -0.556630
     56 H20         5.3970    0.0850   -1.5090 hn        1 MOL      0.084229
     57 H21         7.1510    2.1800   -2.5200 h1        1 MOL      0.128546
     58 H22         5.1570    1.3560   -3.9600 hc        1 MOL      0.038309
     59 H23         5.1120    2.9890   -3.7840 hc        1 MOL      0.038309
     60 H24         2.9750    2.0620   -4.4340 hn        1 MOL      0.341718
     61 H25         1.7330    2.1640   -3.2620 hn        1 MOL      0.341718
     62 N7          6.1010    2.9030    0.1810 n         1 MOL     -0.207664
     63 C20         6.0650    3.9060    1.2820 c3        1 MOL     -0.360218
     64 C21         4.7420    4.5980    1.4230 c         1 MOL      0.544394
     65 O12         4.6210    5.5420    2.1860 o         1 MOL     -0.596814
     66 H26         6.3560    1.9710    0.4900 hn        1 MOL      0.286510
     67 H27         6.7970    4.6880    1.0660 h1        1 MOL      0.152265
     68 H28         6.2810    3.3920    2.2210 h1        1 MOL      0.152265
     69 N8          3.6370    4.0730    0.9220 n         1 MOL      0.106459
     70 C22         2.2250    4.5360    1.1310 c3        1 MOL     -0.371575
     71 C23         1.3060    3.3460    1.3570 c         1 MOL      0.420888
     72 O13         1.4510    2.2540    0.8080 o         1 MOL     -0.438443
     73 C24         1.6990    5.2500   -0.1350 c3        1 MOL      0.520368
     74 C25         2.4460    6.6120   -0.2440 c3        1 MOL     -0.362001
     75 O14         1.9110    4.4780   -1.3180 oh        1 MOL     -0.564026
     76 H29         3.8010    3.1360    0.5780 hn        1 MOL      0.000040
     77 H30         2.1450    5.1400    2.0390 h1        1 MOL      0.127514
     78 H31         0.6350    5.4740   -0.0570 h1        1 MOL     -0.020978
     79 H32         2.3000    3.6450   -1.0270 ho        1 MOL      0.272210
     80 H33         3.4990    6.4170   -0.4440 hc        1 MOL      0.079386
     81 H34         2.0110    7.2840   -0.9690 hc        1 MOL      0.079386
     82 H35         2.4380    7.1620    0.6990 hc        1 MOL      0.079386
     83 N9          0.2120    3.6180    2.0410 n         1 MOL     -0.363884
     84 C26        -0.9460    2.6790    2.1540 c3        1 MOL     -0.011999
     85 C27        -1.8580    3.0110    0.8980 c         1 MOL      0.552272
     86 O15        -2.3750    4.1000    0.7450 o         1 MOL     -0.584633
     87 C28        -1.8490    2.8590    3.4130 c3        1 MOL      0.188881
     88 C29        -1.0590    2.6590    4.7050 c3        1 MOL     -0.002173
     89 C30        -3.0810    1.8600    3.2820 c3        1 MOL     -0.098620
     90 C31        -1.8660    2.9870    6.0070 c3        1 MOL     -0.214733
     91 H36         0.1260    4.5730    2.3380 hn        1 MOL      0.280546
     92 H37        -0.5620    1.6630    2.0850 h1        1 MOL     -0.019505
     93 H38        -2.2070    3.8860    3.3150 hc        1 MOL     -0.041233
     94 H39        -0.1410    3.2510    4.6670 hc        1 MOL      0.001728
     95 H40        -0.8890    1.5760    4.6940 hc        1 MOL      0.001728
     96 H41        -2.7350    0.8360    3.1430 hc        1 MOL      0.012067
     97 H42        -3.7770    1.9800    4.1050 hc        1 MOL      0.012067
     98 H43        -3.6280    2.1270    2.3710 hc        1 MOL      0.012067
     99 H44        -1.2670    2.7340    6.8830 hc        1 MOL      0.051211
    100 H45        -1.9750    4.0600    6.0830 hc        1 MOL      0.051211
    101 H46        -2.7480    2.3700    6.1550 hc        1 MOL      0.051211
    102 N10        -1.8480    2.0480   -0.0350 n         1 MOL     -0.154042
    103 C32        -2.7350    2.0500   -1.2290 c3        1 MOL     -0.006433
    104 C33        -4.1380    1.5820   -0.7730 c         1 MOL      0.358218
    105 O16        -4.1890    0.8500    0.2060 o         1 MOL     -0.176212
    106 C34        -2.0610    1.1730   -2.3080 c3        1 MOL     -0.276051
    107 C35        -0.5820    1.3310   -2.4740 c         1 MOL      0.749067
    108 O17         0.1320    0.7460   -1.6720 o         1 MOL     -0.670439
    109 O18        -0.1130    1.8930   -3.4730 o         1 MOL     -0.670439
    110 H47        -1.3110    1.2220    0.1720 hn        1 MOL      0.013870
    111 H48        -2.9250    3.0330   -1.6730 h1        1 MOL      0.081178
    112 H49        -2.6070    1.3450   -3.2350 hc        1 MOL      0.090002
    113 H50        -2.1400    0.1210   -2.0040 hc        1 MOL      0.090002
    114 N11        -5.1610    1.7260   -1.6410 n         1 MOL     -0.564679
    115 C36        -6.5010    1.1740   -1.4270 c3        1 MOL      0.238172
    116 C37        -6.5190   -0.3230   -1.1310 c         1 MOL      0.302445
    117 O19        -7.0970   -0.6750   -0.1260 o         1 MOL     -0.525388
    118 C38        -7.4870    1.4450   -2.5530 c3        1 MOL     -0.185887
    119 C39        -8.9790    1.3550   -2.1970 ca        1 MOL     -0.000691
    120 C40        -9.5350    2.2200   -1.2620 ca        1 MOL     -0.035248
    121 C41        -9.8590    0.3820   -2.7070 ca        1 MOL     -0.035248
    122 C42       -10.8790    2.3020   -0.9330 ca        1 MOL     -0.204700
    123 C43       -11.2580    0.4520   -2.3980 ca        1 MOL     -0.204700
    124 C44       -11.8010    1.3800   -1.5020 ca        1 MOL     -0.049146
    125 H51        -5.1700    2.1930   -2.5360 hn        1 MOL      0.340837
    126 H52        -6.8990    1.6470   -0.5280 h1        1 MOL      0.078698
    127 H53        -7.2420    0.7270   -3.3430 hc        1 MOL      0.064254
    128 H54        -7.2590    2.4020   -3.0320 hc        1 MOL      0.064254
    129 H55        -8.8080    2.8600   -0.7800 ha        1 MOL      0.079627
    130 H56        -9.4850   -0.3190   -3.4440 ha        1 MOL      0.079627
    131 H57       -11.2020    2.9680   -0.1450 ha        1 MOL      0.125734
    132 H58       -11.8700   -0.3390   -2.8000 ha        1 MOL      0.125734
    133 H59       -12.8240    1.3320   -1.1820 ha        1 MOL      0.106542
    134 N12        -5.8660   -1.2040   -1.8500 n         1 MOL      0.063682
    135 C45        -5.8610   -2.6230   -1.5450 c3        1 MOL     -0.018697
    136 C46        -5.1380   -2.9580   -0.2230 c         1 MOL      0.374975
    137 O20        -5.3460   -3.9580    0.3550 o         1 MOL     -0.512388
    138 C47        -5.2890   -3.2370   -2.8290 c3        1 MOL     -0.181854
    139 C48        -4.3350   -2.2060   -3.3360 c3        1 MOL      0.058886
    140 C49        -5.0690   -0.9300   -3.0620 c3        1 MOL     -0.137184
    141 H60        -6.8690   -3.0170   -1.4420 h1        1 MOL      0.074050
    142 H61        -4.6610   -4.1270   -2.7250 hc        1 MOL      0.067855
    143 H62        -6.1010   -3.3610   -3.5480 hc        1 MOL      0.067855
    144 H63        -3.4750   -2.2230   -2.6660 hc        1 MOL      0.044894
    145 H64        -4.0570   -2.3980   -4.3690 hc        1 MOL      0.044894
    146 H65        -4.4190   -0.0650   -3.0070 h1        1 MOL      0.031097
    147 H66        -5.8790   -0.7770   -3.7780 h1        1 MOL      0.031097
    148 N13        -4.2570   -2.0710    0.2930 n         1 MOL      0.018085
    149 C50        -3.6850   -2.1530    1.6300 c3        1 MOL     -0.160647
    150 C51        -4.5410   -1.5040    2.7620 c         1 MOL      0.439471
    151 O21        -4.4770   -1.8990    3.8950 o         1 MOL     -0.552519
    152 C52        -2.2450   -1.6140    1.5860 c3        1 MOL     -0.070112
    153 C53        -1.4530   -2.3070    0.5770 c3        1 MOL      0.072669
    154 C54        -0.0820   -1.6410    0.3500 c         1 MOL      0.583567
    155 O22         0.7450   -2.0630   -0.4270 o         1 MOL     -0.658923
    156 O23         0.1520   -0.5800    0.9680 o         1 MOL     -0.658923
    157 H67        -4.2280   -1.1590   -0.1410 hn        1 MOL      0.041158
    158 H68        -3.6350   -3.1920    1.9450 h1        1 MOL      0.115111
    159 H69        -1.7380   -1.5430    2.5490 hc        1 MOL      0.061285
    160 H70        -2.4380   -0.6010    1.2360 hc        1 MOL      0.061285
    161 H71        -1.9600   -2.4700   -0.3690 hc        1 MOL     -0.014142
    162 H72        -1.1170   -3.2740    0.9470 hc        1 MOL     -0.014142
    163 N14        -5.3410   -0.5100    2.3910 n         1 MOL     -0.025361
    164 C55        -6.3300    0.1600    3.2110 c3        1 MOL     -0.172035
    165 H73        -5.8390    0.9070    3.8330 h1        1 MOL      0.066622
    166 H74        -7.0650    0.6480    2.5700 h1        1 MOL      0.066622
    167 H75        -6.8310   -0.5700    3.8470 h1        1 MOL      0.066622
    168 H76        -5.2480   -0.1880    1.4260 hn        1 MOL      0.007679
    169 Ca1         2.1890    0.0600   -0.3060 Ca        1 MOL      1.694132
    170 O24         1.7940    0.2870    2.8310 oh        1 MOL     -0.815334
    171 H77         1.5350    0.0920    3.7300 ho        1 MOL      0.396905
    172 H78         1.0020    0.1360    2.3070 ho        1 MOL      0.396905
    173 O25         4.1920    0.9400    1.6690 oh        1 MOL     -0.815334
    174 H79         4.9240    0.8260    2.2780 ho        1 MOL      0.396905
    175 H80         3.4120    0.8120    2.2110 ho        1 MOL      0.396905
@<TRIPOS>BOND
     1    1    2 1   
     2    1    4 1   
     3    1    5 1   
     4    1    6 1   
     5    2    3 2   
     6    2    7 1   
     7    7    8 1   
     8    7   15 1   
     9    8    9 1   
    10    8   11 1   
    11    8   16 1   
    12    9   10 2   
    13    9   19 1   
    14   11   12 1   
    15   11   17 1   
    16   11   18 1   
    17   12   13 1   
    18   12   14 1   
    19   19   20 1   
    20   19   24 1   
    21   20   21 1   
    22   20   23 1   
    23   20   25 1   
    24   21   22 2   
    25   21   29 1   
    26   23   26 1   
    27   23   27 1   
    28   23   28 1   
    29   29   30 1   
    30   29   37 1   
    31   30   31 1   
    32   30   33 1   
    33   30   38 1   
    34   31   32 2   
    35   31   41 1   
    36   33   34 1   
    37   33   39 1   
    38   33   40 1   
    39   34   35 1   
    40   34   36 1   
    41   41   42 1   
    42   41   45 1   
    43   42   43 1   
    44   42   46 1   
    45   42   47 1   
    46   43   44 2   
    47   43   48 1   
    48   48   49 1   
    49   48   56 1   
    50   49   50 1   
    51   49   52 1   
    52   49   57 1   
    53   50   51 2   
    54   50   62 1   
    55   52   53 1   
    56   52   58 1   
    57   52   59 1   
    58   53   54 1   
    59   53   55 2   
    60   54   60 1   
    61   54   61 1   
    62   62   63 1   
    63   62   66 1   
    64   63   64 1   
    65   63   67 1   
    66   63   68 1   
    67   64   65 2   
    68   64   69 1   
    69   69   70 1   
    70   69   76 1   
    71   70   71 1   
    72   70   73 1   
    73   70   77 1   
    74   71   72 2   
    75   71   83 1   
    76   73   74 1   
    77   73   75 1   
    78   73   78 1   
    79   74   80 1   
    80   74   81 1   
    81   74   82 1   
    82   75   79 1   
    83   83   84 1   
    84   83   91 1   
    85   84   85 1   
    86   84   87 1   
    87   84   92 1   
    88   85   86 2   
    89   85  102 1   
    90   87   88 1   
    91   87   89 1   
    92   87   93 1   
    93   88   90 1   
    94   88   94 1   
    95   88   95 1   
    96   89   96 1   
    97   89   97 1   
    98   89   98 1   
    99   90   99 1   
   100   90  100 1   
   101   90  101 1   
   102  102  103 1   
   103  102  110 1   
   104  103  104 1   
   105  103  106 1   
   106  103  111 1   
   107  104  105 2   
   108  104  114 1   
   109  106  107 1   
   110  106  112 1   
   111  106  113 1   
   112  107  108 1   
   113  107  109 1   
   114  114  115 1   
   115  114  125 1   
   116  115  116 1   
   117  115  118 1   
   118  115  126 1   
   119  116  117 2   
   120  116  134 1   
   121  118  119 1   
   122  118  127 1   
   123  118  128 1   
   124  119  120 ar  
   125  119  121 ar  
   126  120  122 ar  
   127  120  129 1   
   128  121  123 ar  
   129  121  130 1   
   130  122  124 ar  
   131  122  131 1   
   132  123  124 ar  
   133  123  132 1   
   134  124  133 1   
   135  134  135 1   
   136  134  140 1   
   137  135  136 1   
   138  135  138 1   
   139  135  141 1   
   140  136  137 2   
   141  136  148 1   
   142  138  139 1   
   143  138  142 1   
   144  138  143 1   
   145  139  140 1   
   146  139  144 1   
   147  139  145 1   
   148  140  146 1   
   149  140  147 1   
   150  148  149 1   
   151  148  157 1   
   152  149  150 1   
   153  149  152 1   
   154  149  158 1   
   155  150  151 2   
   156  150  163 1   
   157  152  153 1   
   158  152  159 1   
   159  152  160 1   
   160  153  154 1   
   161  153  161 1   
   162  153  162 1   
   163  154  155 1   
   164  154  156 1   
   165  163  164 1   
   166  163  168 1   
   167  164  165 1   
   168  164  166 1   
   169  164  167 1   
   170  170  171 1   
   171  170  172 1   
   172  173  174 1   
   173  173  175 1   
@<TRIPOS>SUBSTRUCTURE
     1 MOL         1 TEMP              0 ****  ****    0 ROOT
