@<TRIPOS>MOLECULE
MOL
  189   185     1     0     0
SMALL
resp


@<TRIPOS>ATOM
      1 C1         -0.8260    3.6600    6.2220 c3        1 MOL     -0.407158
      2 C2         -1.2820    3.1340    4.8200 c         1 MOL      0.746145
      3 O1         -1.1060    1.9610    4.5930 o         1 MOL     -0.571941
      4 H1         -0.9450    2.8690    6.9630 hc        1 MOL      0.096427
      5 H2          0.2210    3.9590    6.1760 hc        1 MOL      0.096427
      6 H3         -1.4370    4.5160    6.5060 hc        1 MOL      0.096427
      7 N1         -1.7710    4.0650    4.0140 n         1 MOL     -0.548687
      8 C3         -2.4160    3.7390    2.8040 c3        1 MOL      0.168723
      9 C4         -2.4310    4.9630    1.8850 c         1 MOL      0.433761
     10 O2         -2.9220    6.1000    2.1710 o         1 MOL     -0.576530
     11 C5         -3.8900    3.2410    3.0410 c3        1 MOL     -0.186216
     12 C6         -4.6040    2.5610    1.7980 c         1 MOL      0.729334
     13 O3         -5.8140    2.1730    1.8710 o         1 MOL     -0.702443
     14 O4         -3.9110    2.3380    0.8240 o         1 MOL     -0.702443
     15 H4         -1.7690    5.0430    4.2730 hn        1 MOL      0.298026
     16 H5         -1.8400    2.9300    2.3540 h1        1 MOL      0.025911
     17 H6         -4.5090    4.0930    3.3430 hc        1 MOL      0.031377
     18 H7         -4.0140    2.5820    3.9040 hc        1 MOL      0.031377
     19 N2         -1.9960    4.7990    0.6250 n         1 MOL     -0.076098
     20 C7         -1.9340    5.8220   -0.4390 c3        1 MOL     -0.274361
     21 C8         -2.9160    5.4810   -1.6430 c         1 MOL      0.721768
     22 O5         -3.4130    6.4190   -2.2740 o         1 MOL     -0.628583
     23 C9         -0.4830    5.7670   -1.0780 c3        1 MOL      0.239262
     24 C10         0.7250    5.8010   -0.0430 c3        1 MOL      0.017159
     25 C11        -0.2120    6.9860   -1.9560 c3        1 MOL     -0.399750
     26 C12         1.9420    4.9190   -0.4650 c3        1 MOL     -0.128118
     27 H8         -1.5350    3.9410    0.3710 hn        1 MOL      0.109769
     28 H9         -2.2340    6.8080   -0.1010 h1        1 MOL      0.129749
     29 H10        -0.4320    4.8930   -1.7250 hc        1 MOL      0.041299
     30 H11         0.4630    5.4110    0.9410 hc        1 MOL     -0.012740
     31 H12         1.0310    6.8210    0.1760 hc        1 MOL     -0.012740
     32 H13        -0.5830    7.8560   -1.4210 hc        1 MOL      0.083957
     33 H14         0.8450    7.1320   -2.1780 hc        1 MOL      0.083957
     34 H15        -0.8680    6.9160   -2.8330 hc        1 MOL      0.083957
     35 H16         2.5830    4.7170    0.3920 hc        1 MOL      0.036868
     36 H17         1.6930    3.9240   -0.8430 hc        1 MOL      0.036868
     37 H18         2.5070    5.3990   -1.2660 hc        1 MOL      0.036868
     38 N3         -3.3060    4.2770   -1.8850 n         1 MOL     -0.506127
     39 C13        -3.9430    3.8360   -3.1190 c3        1 MOL      0.071082
     40 C14        -5.1820    2.9660   -2.9020 c         1 MOL      0.436161
     41 O6         -5.8810    2.7860   -3.8870 o         1 MOL     -0.568603
     42 C15        -2.9110    2.9520   -3.8510 c3        1 MOL     -0.226542
     43 C16        -2.3120    1.7950   -3.0520 c         1 MOL      0.703637
     44 O7         -2.7350    1.5270   -1.8800 o         1 MOL     -0.656603
     45 O8         -1.4590    1.0940   -3.5500 o         1 MOL     -0.656603
     46 H19        -2.8140    3.5600   -1.3790 hn        1 MOL      0.261635
     47 H20        -4.2110    4.6960   -3.7310 h1        1 MOL      0.093775
     48 H21        -2.0800    3.5100   -4.2830 hc        1 MOL      0.058855
     49 H22        -3.4080    2.5210   -4.7220 hc        1 MOL      0.058855
     50 N4         -5.5180    2.5170   -1.7160 n         1 MOL     -0.149446
     51 C17        -6.8650    2.0180   -1.3680 c3        1 MOL     -0.191933
     52 C18        -7.1380    0.6380   -1.8560 c         1 MOL      0.403692
     53 O9         -8.3560    0.2790   -2.1020 o         1 MOL     -0.594671
     54 H23        -4.8480    2.6660   -0.9690 hn        1 MOL      0.147668
     55 H24        -7.5880    2.7280   -1.7500 h1        1 MOL      0.124764
     56 H25        -7.0380    1.9820   -0.2950 h1        1 MOL      0.124764
     57 N5         -6.0840   -0.1590   -2.1270 n         1 MOL     -0.097348
     58 C19        -6.3560   -1.5270   -2.6440 c3        1 MOL     -0.096852
     59 C20        -6.7270   -2.5110   -1.4980 c         1 MOL      0.472944
     60 O10        -7.1210   -3.6350   -1.7710 o         1 MOL     -0.553790
     61 C21        -5.0960   -2.0970   -3.2200 c3        1 MOL     -0.120903
     62 C22        -3.7660   -1.8660   -2.4720 c         1 MOL      0.723651
     63 O11        -3.7510   -1.4590   -1.3070 o         1 MOL     -0.689569
     64 O12        -2.6710   -2.3040   -2.8700 o         1 MOL     -0.689569
     65 H26        -5.1310    0.1230   -1.8990 hn        1 MOL      0.123560
     66 H27        -7.1800   -1.4900   -3.3580 h1        1 MOL      0.136847
     67 H28        -5.0320   -1.6780   -4.2230 hc        1 MOL      0.040263
     68 H29        -5.1740   -3.1480   -3.5170 hc        1 MOL      0.040263
     69 N6         -6.6990   -2.1430   -0.1700 n         1 MOL     -0.293015
     70 C23        -7.0370   -2.9630    1.0060 c3        1 MOL     -0.269838
     71 C24        -5.7980   -3.7560    1.4800 c         1 MOL      0.554577
     72 O13        -5.9320   -4.7320    2.2040 o         1 MOL     -0.602627
     73 H30        -6.3200   -1.2310    0.0390 hn        1 MOL      0.328757
     74 H31        -7.8490   -3.6660    0.8030 h1        1 MOL      0.133316
     75 H32        -7.2140   -2.3240    1.8720 h1        1 MOL      0.133316
     76 N7         -4.6200   -3.5220    0.8830 n         1 MOL     -0.140298
     77 C25        -3.3820   -4.3060    0.9850 c3        1 MOL     -0.089943
     78 C26        -2.1610   -3.4220    1.3550 c         1 MOL      0.272449
     79 O14        -2.1650   -2.2230    1.1690 o         1 MOL     -0.383767
     80 C27        -2.9870   -5.0080   -0.3370 c3        1 MOL      0.202717
     81 C28        -4.0460   -6.0260   -0.7520 c3        1 MOL     -0.498856
     82 C29        -3.4670   -7.0370   -1.6630 c         1 MOL      0.696698
     83 N8         -3.9510   -7.2110   -2.8370 n         1 MOL     -0.730329
     84 O15        -2.6010   -7.8220   -1.3530 o         1 MOL     -0.617992
     85 H33        -4.5160   -2.6240    0.4200 hn        1 MOL      0.049573
     86 H34        -3.4630   -5.1280    1.6910 h1        1 MOL      0.056760
     87 H35        -2.0190   -5.5020   -0.2850 hc        1 MOL      0.038950
     88 H36        -2.7380   -4.2320   -1.0530 hc        1 MOL      0.038950
     89 H37        -4.9380   -5.5920   -1.1990 hc        1 MOL      0.158842
     90 H38        -4.4020   -6.5620    0.1290 hc        1 MOL      0.158842
     91 H39        -4.8240   -6.7880   -3.1260 hn        1 MOL      0.337851
     92 H40        -3.4190   -7.9290   -3.2940 hn        1 MOL      0.337851
     93 N9         -1.1250   -4.0840    1.8540 n         1 MOL     -0.269358
     94 C30         0.1260   -3.3710    2.2070 c3        1 MOL     -0.090790
     95 C31         1.0960   -3.4040    1.0110 c         1 MOL      0.556434
     96 O16         1.4500   -4.4870    0.5360 o         1 MOL     -0.614115
     97 C32         0.6780   -3.9970    3.4820 c3        1 MOL      0.359501
     98 C33         2.0230   -3.2350    3.8210 c3        1 MOL     -0.363786
     99 C34        -0.3100   -3.9400    4.6460 c3        1 MOL     -0.363786
    100 H41        -1.2520   -5.0820    1.9260 hn        1 MOL      0.252221
    101 H42        -0.0400   -2.3460    2.5490 h1        1 MOL      0.141582
    102 H43         0.9040   -5.0420    3.2630 hc        1 MOL     -0.065874
    103 H44         2.7790   -3.3450    3.0430 hc        1 MOL      0.074446
    104 H45         1.7520   -2.1950    3.9980 hc        1 MOL      0.074446
    105 H46         2.3280   -3.7130    4.7520 hc        1 MOL      0.074446
    106 H47        -1.0410   -4.7440    4.5910 hc        1 MOL      0.074446
    107 H48         0.2830   -3.9930    5.5450 hc        1 MOL      0.074446
    108 H49        -0.8000   -2.9700    4.6000 hc        1 MOL      0.074446
    109 N10         1.6040   -2.3050    0.4890 n         1 MOL     -0.159420
    110 C35         2.7200   -2.2550   -0.3950 c3        1 MOL      0.002965
    111 C36         4.0500   -2.2510    0.4260 c         1 MOL      0.192663
    112 O17         4.1040   -1.8180    1.5720 o         1 MOL     -0.152057
    113 C37         2.5370   -0.9250   -1.1920 c3        1 MOL     -0.308880
    114 C38         3.6050   -0.7150   -2.2190 c         1 MOL      0.759757
    115 N11         3.9960   -1.7400   -3.0500 n         1 MOL     -0.878437
    116 O18         4.1480    0.3240   -2.3280 o         1 MOL     -0.516686
    117 H50         1.1240   -1.5180    0.9160 hn        1 MOL      0.094531
    118 H51         2.7700   -3.1180   -1.0610 h1        1 MOL      0.081120
    119 H52         2.5930   -0.0880   -0.4960 hc        1 MOL      0.146383
    120 H53         1.5460   -0.9830   -1.6450 hc        1 MOL      0.146383
    121 H54         3.5570   -2.6430   -3.1260 hn        1 MOL      0.360659
    122 H55         4.7190   -1.5620   -3.7330 hn        1 MOL      0.360659
    123 N12         5.1570   -2.7400   -0.1420 n         1 MOL     -0.218044
    124 C39         6.4320   -2.5220    0.5300 c3        1 MOL      0.023043
    125 C40         6.8530   -1.0240    0.8510 c         1 MOL      0.377145
    126 O19         7.4100   -0.7430    1.9210 o         1 MOL     -0.528695
    127 C41         7.5690   -3.1010   -0.3430 c3        1 MOL     -0.229938
    128 C42         7.7340   -2.4530   -1.7560 ca        1 MOL      0.030754
    129 C43         8.6650   -1.4610   -2.0650 ca        1 MOL     -0.124766
    130 C44         6.9380   -2.9710   -2.8300 ca        1 MOL     -0.124766
    131 C45         8.7510   -0.9580   -3.3930 ca        1 MOL     -0.398294
    132 C46         7.0640   -2.4780   -4.1490 ca        1 MOL     -0.398294
    133 C47         7.9520   -1.4420   -4.4520 ca        1 MOL      0.499188
    134 O20         8.1450   -1.0260   -5.7460 oh        1 MOL     -0.541300
    135 H56         5.0190   -3.1550   -1.0560 hn        1 MOL      0.187915
    136 H57         6.4290   -3.0790    1.4650 h1        1 MOL      0.084440
    137 H58         7.3540   -4.1570   -0.5460 hc        1 MOL      0.082925
    138 H59         8.5220   -3.0310    0.1660 hc        1 MOL      0.082925
    139 H60         9.3210   -1.0230   -1.3230 ha        1 MOL      0.140678
    140 H61         6.2620   -3.7750   -2.5830 ha        1 MOL      0.140678
    141 H62         9.4820   -0.1780   -3.5270 ha        1 MOL      0.180840
    142 H63         6.4710   -2.7930   -4.9950 ha        1 MOL      0.180840
    143 H64         8.8720   -0.3900   -5.7260 ho        1 MOL      0.395858
    144 N13         6.4320   -0.0490    0.0140 n         1 MOL     -0.024395
    145 C48         6.5210    1.3550    0.4130 c3        1 MOL     -0.436395
    146 C49         5.5980    1.7400    1.5960 c         1 MOL      0.528708
    147 O21         5.7390    2.8090    2.2090 o         1 MOL     -0.558649
    148 C50         6.2910    2.2610   -0.8550 c3        1 MOL      0.108857
    149 C51         7.3620    2.0070   -1.9980 c3        1 MOL     -0.080544
    150 C52         7.5060    3.2980   -2.8520 c         1 MOL      0.647302
    151 O22         6.8100    3.3330   -3.8990 o         1 MOL     -0.721149
    152 O23         8.3000    4.1220   -2.3670 o         1 MOL     -0.721149
    153 H65         6.1840   -0.2960   -0.9320 hn        1 MOL      0.315494
    154 H66         7.5420    1.5390    0.7460 h1        1 MOL      0.177531
    155 H67         6.4070    3.3360   -0.6920 hc        1 MOL      0.023459
    156 H68         5.2410    2.1530   -1.1320 hc        1 MOL      0.023459
    157 H69         7.0930    1.1640   -2.6280 hc        1 MOL     -0.024917
    158 H70         8.2810    1.6970   -1.4970 hc        1 MOL     -0.024917
    159 N14         4.6240    0.8990    1.9680 n         1 MOL      0.013231
    160 C53         3.6930    1.0530    3.0660 c3        1 MOL     -0.117761
    161 C54         4.2220    0.1850    4.2820 c         1 MOL      0.433774
    162 O24         4.1290    0.5700    5.4510 o         1 MOL     -0.554310
    163 C55         2.2520    0.6570    2.7040 c3        1 MOL      0.038226
    164 C56         1.5340    1.6780    1.8600 c3        1 MOL     -0.120787
    165 C57         0.2040    1.1380    1.2030 c         1 MOL      0.823971
    166 O25        -0.4920    1.9840    0.6090 o         1 MOL     -0.751868
    167 O26        -0.0970   -0.0790    1.2590 o         1 MOL     -0.751868
    168 H71         4.6340   -0.0120    1.5350 hn        1 MOL     -0.171429
    169 H72         3.7370    2.1170    3.2840 h1        1 MOL      0.094947
    170 H73         1.6690    0.4630    3.6030 hc        1 MOL      0.024262
    171 H74         2.2190   -0.2830    2.1540 hc        1 MOL      0.024262
    172 H75         2.2540    2.0560    1.1310 hc        1 MOL      0.024276
    173 H76         1.2290    2.5070    2.5070 hc        1 MOL      0.024276
    174 N15         4.8750   -1.0010    4.0550 n         1 MOL     -0.057025
    175 C58         5.4530   -1.8260    5.1430 c3        1 MOL     -0.269250
    176 H77         4.6920   -2.0090    5.9030 h1        1 MOL      0.087809
    177 H78         5.7950   -2.7780    4.7360 h1        1 MOL      0.087809
    178 H79         6.2950   -1.2990    5.5910 h1        1 MOL      0.087809
    179 H80         4.8170   -1.4230    3.1370 hn        1 MOL      0.097576
    180 Ca1        -2.5290    0.2050    0.2560 Ca        1 MOL      1.705770
    181 O27        -2.2680    0.1820    3.0790 oh        1 MOL     -0.888338
    182 H81        -2.4790   -0.6190    3.5630 ho        1 MOL      0.408816
    183 H82        -1.7940    0.7290    3.7030 ho        1 MOL      0.408816
    184 O28        -0.9910   -0.7750   -1.7520 oh        1 MOL     -0.888338
    185 H83        -1.6820   -1.3880   -1.9780 ho        1 MOL      0.408816
    186 H84        -0.8360   -0.2740   -2.5470 ho        1 MOL      0.408816
    187 O29        -5.2120   -0.2250    1.4350 oh        1 MOL     -0.888338
    188 H85        -4.6170   -0.2300    2.1850 ho        1 MOL      0.408816
    189 H86        -5.7520    0.5470    1.5670 ho        1 MOL      0.408816
@<TRIPOS>BOND
     1    1    2 1   
     2    1    4 1   
     3    1    5 1   
     4    1    6 1   
     5    2    3 2   
     6    2    7 1   
     7    7    8 1   
     8    7   15 1   
     9    8    9 1   
    10    8   11 1   
    11    8   16 1   
    12    9   10 2   
    13    9   19 1   
    14   11   12 1   
    15   11   17 1   
    16   11   18 1   
    17   12   13 1   
    18   12   14 1   
    19   19   20 1   
    20   19   27 1   
    21   20   21 1   
    22   20   23 1   
    23   20   28 1   
    24   21   22 2   
    25   21   38 1   
    26   23   24 1   
    27   23   25 1   
    28   23   29 1   
    29   24   26 1   
    30   24   30 1   
    31   24   31 1   
    32   25   32 1   
    33   25   33 1   
    34   25   34 1   
    35   26   35 1   
    36   26   36 1   
    37   26   37 1   
    38   38   39 1   
    39   38   46 1   
    40   39   40 1   
    41   39   42 1   
    42   39   47 1   
    43   40   41 2   
    44   40   50 1   
    45   42   43 1   
    46   42   48 1   
    47   42   49 1   
    48   43   44 1   
    49   43   45 1   
    50   50   51 1   
    51   50   54 1   
    52   51   52 1   
    53   51   55 1   
    54   51   56 1   
    55   52   53 2   
    56   52   57 1   
    57   57   58 1   
    58   57   65 1   
    59   58   59 1   
    60   58   61 1   
    61   58   66 1   
    62   59   60 2   
    63   59   69 1   
    64   61   62 1   
    65   61   67 1   
    66   61   68 1   
    67   62   63 1   
    68   62   64 1   
    69   69   70 1   
    70   69   73 1   
    71   70   71 1   
    72   70   74 1   
    73   70   75 1   
    74   71   72 2   
    75   71   76 1   
    76   76   77 1   
    77   76   85 1   
    78   77   78 1   
    79   77   80 1   
    80   77   86 1   
    81   78   79 2   
    82   78   93 1   
    83   80   81 1   
    84   80   87 1   
    85   80   88 1   
    86   81   82 1   
    87   81   89 1   
    88   81   90 1   
    89   82   83 1   
    90   82   84 2   
    91   83   91 1   
    92   83   92 1   
    93   93   94 1   
    94   93  100 1   
    95   94   95 1   
    96   94   97 1   
    97   94  101 1   
    98   95   96 2   
    99   95  109 1   
   100   97   98 1   
   101   97   99 1   
   102   97  102 1   
   103   98  103 1   
   104   98  104 1   
   105   98  105 1   
   106   99  106 1   
   107   99  107 1   
   108   99  108 1   
   109  109  110 1   
   110  109  117 1   
   111  110  111 1   
   112  110  113 1   
   113  110  118 1   
   114  111  112 2   
   115  111  123 1   
   116  113  114 1   
   117  113  119 1   
   118  113  120 1   
   119  114  115 1   
   120  114  116 2   
   121  115  121 1   
   122  115  122 1   
   123  123  124 1   
   124  123  135 1   
   125  124  125 1   
   126  124  127 1   
   127  124  136 1   
   128  125  126 2   
   129  125  144 1   
   130  127  128 1   
   131  127  137 1   
   132  127  138 1   
   133  128  129 ar  
   134  128  130 ar  
   135  129  131 ar  
   136  129  139 1   
   137  130  132 ar  
   138  130  140 1   
   139  131  133 ar  
   140  131  141 1   
   141  132  133 ar  
   142  132  142 1   
   143  133  134 1   
   144  134  143 1   
   145  144  145 1   
   146  144  153 1   
   147  145  146 1   
   148  145  148 1   
   149  145  154 1   
   150  146  147 2   
   151  146  159 1   
   152  148  149 1   
   153  148  155 1   
   154  148  156 1   
   155  149  150 1   
   156  149  157 1   
   157  149  158 1   
   158  150  151 1   
   159  150  152 1   
   160  159  160 1   
   161  159  168 1   
   162  160  161 1   
   163  160  163 1   
   164  160  169 1   
   165  161  162 2   
   166  161  174 1   
   167  163  164 1   
   168  163  170 1   
   169  163  171 1   
   170  164  165 1   
   171  164  172 1   
   172  164  173 1   
   173  165  166 1   
   174  165  167 1   
   175  174  175 1   
   176  174  179 1   
   177  175  176 1   
   178  175  177 1   
   179  175  178 1   
   180  181  182 1   
   181  181  183 1   
   182  184  185 1   
   183  184  186 1   
   184  187  188 1   
   185  187  189 1   
@<TRIPOS>SUBSTRUCTURE
     1 MOL         1 TEMP              0 ****  ****    0 ROOT
