@<TRIPOS>MOLECULE
MOL
  186   183     1     0     0
SMALL
resp


@<TRIPOS>ATOM
      1 C1          0.6220   -2.2140    5.8380 c3        1 MOL     -0.263501
      2 C2          1.1390   -2.1790    4.3900 c         1 MOL      0.756358
      3 O1          0.5120   -2.6120    3.4730 o         1 MOL     -0.586292
      4 H1          1.3580   -2.7060    6.4740 hc        1 MOL      0.057894
      5 H2          0.4610   -1.1960    6.1910 hc        1 MOL      0.057894
      6 H3         -0.3170   -2.7650    5.8760 hc        1 MOL      0.057894
      7 N1          2.3100   -1.5900    4.1230 n         1 MOL     -0.597397
      8 C3          2.8360   -1.4180    2.7240 c3        1 MOL      0.410326
      9 C4          3.2830   -2.8020    2.2290 c         1 MOL      0.281728
     10 O2          4.3010   -3.3000    2.6570 o         1 MOL     -0.498374
     11 C5          4.0390   -0.3730    2.7800 c3        1 MOL     -0.500346
     12 C6          4.8040   -0.4460    1.4970 c         1 MOL      0.768057
     13 O3          6.0560   -0.3300    1.5500 o         1 MOL     -0.677213
     14 O4          4.2220   -0.7540    0.4390 o         1 MOL     -0.677213
     15 H4          2.7930   -1.1480    4.8920 hn        1 MOL      0.278407
     16 H5          2.1190   -1.0100    2.0210 h1        1 MOL     -0.077487
     17 H6          4.8270   -0.6610    3.4870 hc        1 MOL      0.123048
     18 H7          3.6120    0.6170    2.9690 hc        1 MOL      0.123048
     19 N2          2.4890   -3.4270    1.3550 n         1 MOL     -0.105865
     20 C7          2.6460   -4.8540    1.0340 c3        1 MOL      0.006155
     21 C8          3.8290   -5.1350    0.1110 c         1 MOL      0.360241
     22 O5          4.5220   -6.1570    0.1990 o         1 MOL     -0.571324
     23 C9          1.2670   -5.4680    0.5310 c3        1 MOL      0.304253
     24 C10         0.1500   -5.4230    1.6100 c3        1 MOL      0.408284
     25 C11         1.3330   -6.8680   -0.1410 c3        1 MOL     -0.384427
     26 C12        -1.2930   -5.8630    1.1760 c3        1 MOL     -0.347515
     27 H8          1.7060   -2.8970    0.9880 hn        1 MOL      0.149405
     28 H9          2.7820   -5.3550    1.9940 h1        1 MOL      0.043552
     29 H10         0.8480   -4.7750   -0.2060 hc        1 MOL     -0.045948
     30 H11         0.0920   -4.4510    2.0990 hc        1 MOL     -0.146697
     31 H12         0.5790   -6.0960    2.3440 hc        1 MOL     -0.146697
     32 H13         1.3970   -7.5820    0.6830 hc        1 MOL      0.070188
     33 H14         0.4080   -7.1430   -0.6300 hc        1 MOL      0.070188
     34 H15         2.1840   -6.9490   -0.8220 hc        1 MOL      0.070188
     35 H16        -1.5580   -5.3410    0.2490 hc        1 MOL      0.070155
     36 H17        -1.3300   -6.9360    1.0280 hc        1 MOL      0.070155
     37 H18        -2.0730   -5.5190    1.8680 hc        1 MOL      0.070155
     38 N3          4.1210   -4.1930   -0.8030 n         1 MOL     -0.202971
     39 C13         4.9940   -4.2800   -1.9900 c3        1 MOL      0.240335
     40 C14         6.2320   -3.3490   -1.8510 c         1 MOL      0.362028
     41 O6          7.1090   -3.4570   -2.7340 o         1 MOL     -0.553780
     42 C15         4.1660   -4.0910   -3.2950 c3        1 MOL     -0.323497
     43 C16         3.2280   -2.7960   -3.2770 c         1 MOL      0.837350
     44 O7          2.3870   -2.6230   -4.2160 o         1 MOL     -0.723896
     45 O8          3.3340   -1.9000   -2.4160 o         1 MOL     -0.723896
     46 H19         3.5510   -3.3590   -0.8190 hn        1 MOL      0.073087
     47 H20         5.3470   -5.3060   -2.0620 h1        1 MOL      0.040400
     48 H21         3.4610   -4.9250   -3.3620 hc        1 MOL      0.065965
     49 H22         4.8550   -4.1550   -4.1360 hc        1 MOL      0.065965
     50 N4          6.4320   -2.6560   -0.7150 n         1 MOL     -0.278861
     51 C17         7.7750   -2.1450   -0.2640 c3        1 MOL     -0.233893
     52 C18         8.0810   -0.6770   -0.6190 c         1 MOL      0.535896
     53 O9          9.2000   -0.1480   -0.4060 o         1 MOL     -0.608644
     54 H23         5.6330   -2.4350   -0.1410 hn        1 MOL      0.273511
     55 H24         8.5720   -2.7550   -0.6980 h1        1 MOL      0.128749
     56 H25         7.8180   -2.3200    0.8130 h1        1 MOL      0.128749
     57 N5          7.1360   -0.0410   -1.2970 n         1 MOL     -0.241581
     58 C19         7.3310    1.2760   -1.8410 c3        1 MOL      0.012805
     59 C20         7.2820    2.3680   -0.7540 c         1 MOL      0.437781
     60 O10         7.4680    3.5350   -1.0480 o         1 MOL     -0.581024
     61 C21         6.2720    1.5400   -2.9610 c3        1 MOL     -0.329783
     62 C22         4.7810    1.4160   -2.6020 c         1 MOL      0.669114
     63 O11         4.3570    1.8020   -1.4720 o         1 MOL     -0.695388
     64 O12         3.9490    0.7640   -3.3790 o         1 MOL     -0.695388
     65 H26         6.1870   -0.3910   -1.2750 hn        1 MOL      0.273634
     66 H27         8.3310    1.3480   -2.2670 h1        1 MOL      0.091524
     67 H28         6.4000    0.7850   -3.7420 hc        1 MOL      0.092566
     68 H29         6.4700    2.5670   -3.2690 hc        1 MOL      0.092566
     69 N6          6.9920    2.0380    0.5160 n         1 MOL     -0.153701
     70 C23         6.9040    2.9720    1.6540 c3        1 MOL     -0.246844
     71 C24         5.5970    3.7150    1.7670 c         1 MOL      0.500851
     72 O13         5.4890    4.5380    2.6870 o         1 MOL     -0.594723
     73 H30         6.9670    1.0270    0.5650 hn        1 MOL      0.208700
     74 H31         7.7520    3.6030    1.3960 h1        1 MOL      0.118248
     75 H32         7.1120    2.4940    2.6180 h1        1 MOL      0.118248
     76 N7          4.5940    3.4110    0.9540 n         1 MOL     -0.185151
     77 C25         3.2610    4.0330    1.0390 c3        1 MOL      0.036704
     78 C26         2.1080    3.0690    1.0510 c         1 MOL      0.427738
     79 O14         2.1690    1.9370    0.6090 o         1 MOL     -0.534726
     80 C27         3.1530    4.9880   -0.1300 c3        1 MOL     -0.019459
     81 C28         4.0950    6.1970   -0.0310 c3        1 MOL     -0.117346
     82 C29         3.6080    7.2350   -1.0230 c         1 MOL      0.616970
     83 N8          4.3770    7.4070   -2.0980 n         1 MOL     -0.805703
     84 O15         2.6440    7.9530   -0.8310 o         1 MOL     -0.573276
     85 H33         4.7640    2.7340    0.2250 hn        1 MOL      0.206309
     86 H34         3.2050    4.6340    1.9490 h1        1 MOL      0.048440
     87 H35         2.1480    5.4050   -0.1920 hc        1 MOL      0.031401
     88 H36         3.4090    4.4820   -1.0540 hc        1 MOL      0.031401
     89 H37         5.1120    5.9440   -0.3410 hc        1 MOL      0.053004
     90 H38         4.1940    6.6360    0.9570 hc        1 MOL      0.053004
     91 H39         5.1890    6.8310   -2.3000 hn        1 MOL      0.362255
     92 H40         4.0840    8.1290   -2.7340 hn        1 MOL      0.362255
     93 N9          0.9840    3.4580    1.7170 n         1 MOL     -0.356759
     94 C30        -0.1660    2.5830    2.0510 c3        1 MOL      0.029872
     95 C31        -1.3460    3.0180    1.1500 c         1 MOL      0.424549
     96 O16        -1.8110    4.1620    1.2990 o         1 MOL     -0.585660
     97 C32        -0.3720    2.6590    3.5820 c3        1 MOL      0.159501
     98 C33        -1.5850    1.7510    3.9080 c3        1 MOL     -0.266172
     99 C34         0.7440    2.0130    4.4800 c3        1 MOL     -0.266172
    100 H41         1.0540    4.4000    2.0820 hn        1 MOL      0.259174
    101 H42        -0.1010    1.5410    1.7320 h1        1 MOL      0.114761
    102 H43        -0.4800    3.7070    3.8890 hc        1 MOL     -0.004095
    103 H44        -2.5050    2.2070    3.5440 hc        1 MOL      0.061805
    104 H45        -1.3290    0.7760    3.4840 hc        1 MOL      0.061805
    105 H46        -1.5780    1.5120    4.9660 hc        1 MOL      0.061805
    106 H47         0.8850    0.9580    4.2870 hc        1 MOL      0.061805
    107 H48         1.7170    2.5000    4.4330 hc        1 MOL      0.061805
    108 H49         0.4900    2.1280    5.5360 hc        1 MOL      0.061805
    109 N10        -1.6490    2.3450    0.1190 n         1 MOL     -0.250504
    110 C35        -2.8720    2.5400   -0.6460 c3        1 MOL      0.004498
    111 C36        -4.1490    2.0160    0.0510 c         1 MOL      0.212763
    112 O17        -4.0580    1.0470    0.8620 o         1 MOL     -0.164412
    113 C37        -2.6920    1.7570   -1.9920 c3        1 MOL     -0.228451
    114 C38        -3.8670    1.8640   -2.9480 c         1 MOL      0.520781
    115 N11        -4.4210    3.0490   -3.2130 n         1 MOL     -0.750019
    116 O18        -4.2330    0.8110   -3.5300 o         1 MOL     -0.463205
    117 H50        -1.0810    1.5610   -0.1670 hn        1 MOL      0.272169
    118 H51        -2.9930    3.6230   -0.7120 h1        1 MOL      0.072756
    119 H52        -2.3670    0.7280   -1.8640 hc        1 MOL      0.117797
    120 H53        -1.8440    2.2360   -2.4650 hc        1 MOL      0.117797
    121 H54        -4.2790    3.9760   -2.8170 hn        1 MOL      0.352375
    122 H55        -5.1000    2.9900   -3.9620 hn        1 MOL      0.352375
    123 N12        -5.3230    2.5700   -0.2890 n         1 MOL     -0.263473
    124 C39        -6.5330    2.0090    0.2310 c3        1 MOL      0.018821
    125 C40        -6.5910    0.4740   -0.0190 c         1 MOL      0.843579
    126 O19        -7.0550   -0.1920    0.9540 o         1 MOL     -0.575413
    127 C41        -7.7230    2.7230   -0.4590 c3        1 MOL     -0.059270
    128 C42        -9.0800    2.1950   -0.0490 ca        1 MOL     -0.002285
    129 C43        -9.4300    2.4020    1.2900 ca        1 MOL     -0.192123
    130 C44        -9.8260    1.3470   -0.9110 ca        1 MOL     -0.192123
    131 C45       -10.6470    1.8310    1.7620 ca        1 MOL     -0.232861
    132 C46       -11.0650    0.7950   -0.4690 ca        1 MOL     -0.232861
    133 C47       -11.4970    1.0980    0.8880 ca        1 MOL      0.346667
    134 O20       -12.7080    0.7350    1.3940 oh        1 MOL     -0.570822
    135 H56        -5.3190    3.3610   -0.9290 hn        1 MOL      0.202471
    136 H57        -6.5850    2.2600    1.2930 h1        1 MOL      0.045030
    137 H58        -7.5490    2.4450   -1.4960 hc        1 MOL      0.021627
    138 H59        -7.6700    3.8050   -0.2940 hc        1 MOL      0.021627
    139 H60        -8.7640    3.0190    1.8770 ha        1 MOL      0.141806
    140 H61        -9.4140    1.0250   -1.8580 ha        1 MOL      0.141806
    141 H62       -10.9830    1.9450    2.7770 ha        1 MOL      0.146579
    142 H63       -11.6750    0.1460   -1.0750 ha        1 MOL      0.146579
    143 H64       -13.2480    0.3070    0.7200 ho        1 MOL      0.406287
    144 N13        -6.2420   -0.1300   -1.1910 n         1 MOL     -0.485054
    145 C48        -6.3520   -1.5340   -1.3850 c3        1 MOL      0.007396
    146 C49        -5.5900   -2.3860   -0.4270 c         1 MOL      0.230986
    147 O21        -5.9420   -3.5880   -0.2630 o         1 MOL     -0.484977
    148 C50        -5.9760   -1.9070   -2.8270 c3        1 MOL     -0.251854
    149 C51        -6.7440   -1.2630   -3.9370 c3        1 MOL     -0.078954
    150 C52        -8.1390   -1.9020   -4.0260 c         1 MOL      0.641219
    151 O22        -9.1260   -1.3250   -3.4990 o         1 MOL     -0.699251
    152 O23        -8.2410   -2.9710   -4.6210 o         1 MOL     -0.699251
    153 H65        -5.9820    0.3950   -2.0160 hn        1 MOL      0.295968
    154 H66        -7.3720   -1.8470   -1.1650 h1        1 MOL      0.143633
    155 H67        -6.1220   -2.9830   -2.8760 hc        1 MOL      0.126378
    156 H68        -4.9500   -1.6130   -3.0600 hc        1 MOL      0.126378
    157 H69        -6.1750   -1.4180   -4.8530 hc        1 MOL     -0.019216
    158 H70        -6.7930   -0.1960   -3.7360 hc        1 MOL     -0.019216
    159 N14        -4.5300   -1.7680    0.2070 n         1 MOL     -0.052418
    160 C53        -3.6150   -2.3180    1.2510 c3        1 MOL     -0.046459
    161 C54        -4.1270   -2.0730    2.7180 c         1 MOL      0.391966
    162 O24        -3.9790   -2.8880    3.6560 o         1 MOL     -0.568161
    163 C55        -2.2370   -1.6330    1.1260 c3        1 MOL      0.379543
    164 C56        -1.6750   -1.8730   -0.2230 c3        1 MOL      0.029346
    165 C57        -0.2890   -1.2070   -0.5030 c         1 MOL      0.730167
    166 O25         0.6720   -1.9390   -0.7500 o         1 MOL     -0.697737
    167 O26        -0.0420    0.0430   -0.3600 o         1 MOL     -0.697737
    168 H71        -4.3590   -0.8030   -0.0450 hn        1 MOL      0.124831
    169 H72        -3.5240   -3.3960    1.1350 h1        1 MOL      0.085252
    170 H73        -1.5350   -2.0150    1.8590 hc        1 MOL     -0.105983
    171 H74        -2.3490   -0.5860    1.3960 hc        1 MOL     -0.105983
    172 H75        -2.3580   -1.3420   -0.8820 hc        1 MOL     -0.093476
    173 H76        -1.7310   -2.9300   -0.4690 hc        1 MOL     -0.093476
    174 N15        -4.6610   -0.8880    2.9700 n         1 MOL      0.120650
    175 C58        -5.3380   -0.4290    4.1460 c3        1 MOL     -0.461129
    176 H77        -6.3530   -0.8250    4.1580 h1        1 MOL      0.140074
    177 H78        -4.8040   -0.7730    5.0310 h1        1 MOL      0.140074
    178 H79        -5.3730    0.6610    4.1420 h1        1 MOL      0.140074
    179 H80        -4.6460   -0.2760    2.1650 hn        1 MOL     -0.142161
    180 Ca1         2.3580    0.1740   -1.2720 Ca        1 MOL      1.691486
    181 O27         0.7420   -0.3740   -3.4190 oh        1 MOL     -0.846718
    182 H81         1.2380   -1.0120   -3.9250 ho        1 MOL      0.396754
    183 H82        -0.0100   -0.1570   -3.9640 ho        1 MOL      0.396754
    184 O28         1.3760    2.5550   -2.1200 oh        1 MOL     -0.846718
    185 H83         1.9410    3.3140   -2.0270 ho        1 MOL      0.396754
    186 H84         1.1070    2.5650   -3.0400 ho        1 MOL      0.396754
@<TRIPOS>BOND
     1    1    2 1   
     2    1    4 1   
     3    1    5 1   
     4    1    6 1   
     5    2    3 2   
     6    2    7 1   
     7    7    8 1   
     8    7   15 1   
     9    8    9 1   
    10    8   11 1   
    11    8   16 1   
    12    9   10 2   
    13    9   19 1   
    14   11   12 1   
    15   11   17 1   
    16   11   18 1   
    17   12   13 1   
    18   12   14 1   
    19   19   20 1   
    20   19   27 1   
    21   20   21 1   
    22   20   23 1   
    23   20   28 1   
    24   21   22 2   
    25   21   38 1   
    26   23   24 1   
    27   23   25 1   
    28   23   29 1   
    29   24   26 1   
    30   24   30 1   
    31   24   31 1   
    32   25   32 1   
    33   25   33 1   
    34   25   34 1   
    35   26   35 1   
    36   26   36 1   
    37   26   37 1   
    38   38   39 1   
    39   38   46 1   
    40   39   40 1   
    41   39   42 1   
    42   39   47 1   
    43   40   41 2   
    44   40   50 1   
    45   42   43 1   
    46   42   48 1   
    47   42   49 1   
    48   43   44 1   
    49   43   45 1   
    50   50   51 1   
    51   50   54 1   
    52   51   52 1   
    53   51   55 1   
    54   51   56 1   
    55   52   53 2   
    56   52   57 1   
    57   57   58 1   
    58   57   65 1   
    59   58   59 1   
    60   58   61 1   
    61   58   66 1   
    62   59   60 2   
    63   59   69 1   
    64   61   62 1   
    65   61   67 1   
    66   61   68 1   
    67   62   63 1   
    68   62   64 1   
    69   69   70 1   
    70   69   73 1   
    71   70   71 1   
    72   70   74 1   
    73   70   75 1   
    74   71   72 2   
    75   71   76 1   
    76   76   77 1   
    77   76   85 1   
    78   77   78 1   
    79   77   80 1   
    80   77   86 1   
    81   78   79 2   
    82   78   93 1   
    83   80   81 1   
    84   80   87 1   
    85   80   88 1   
    86   81   82 1   
    87   81   89 1   
    88   81   90 1   
    89   82   83 1   
    90   82   84 2   
    91   83   91 1   
    92   83   92 1   
    93   93   94 1   
    94   93  100 1   
    95   94   95 1   
    96   94   97 1   
    97   94  101 1   
    98   95   96 2   
    99   95  109 1   
   100   97   98 1   
   101   97   99 1   
   102   97  102 1   
   103   98  103 1   
   104   98  104 1   
   105   98  105 1   
   106   99  106 1   
   107   99  107 1   
   108   99  108 1   
   109  109  110 1   
   110  109  117 1   
   111  110  111 1   
   112  110  113 1   
   113  110  118 1   
   114  111  112 2   
   115  111  123 1   
   116  113  114 1   
   117  113  119 1   
   118  113  120 1   
   119  114  115 1   
   120  114  116 2   
   121  115  121 1   
   122  115  122 1   
   123  123  124 1   
   124  123  135 1   
   125  124  125 1   
   126  124  127 1   
   127  124  136 1   
   128  125  126 2   
   129  125  144 1   
   130  127  128 1   
   131  127  137 1   
   132  127  138 1   
   133  128  129 ar  
   134  128  130 ar  
   135  129  131 ar  
   136  129  139 1   
   137  130  132 ar  
   138  130  140 1   
   139  131  133 ar  
   140  131  141 1   
   141  132  133 ar  
   142  132  142 1   
   143  133  134 1   
   144  134  143 1   
   145  144  145 1   
   146  144  153 1   
   147  145  146 1   
   148  145  148 1   
   149  145  154 1   
   150  146  147 2   
   151  146  159 1   
   152  148  149 1   
   153  148  155 1   
   154  148  156 1   
   155  149  150 1   
   156  149  157 1   
   157  149  158 1   
   158  150  151 1   
   159  150  152 1   
   160  159  160 1   
   161  159  168 1   
   162  160  161 1   
   163  160  163 1   
   164  160  169 1   
   165  161  162 2   
   166  161  174 1   
   167  163  164 1   
   168  163  170 1   
   169  163  171 1   
   170  164  165 1   
   171  164  172 1   
   172  164  173 1   
   173  165  166 1   
   174  165  167 1   
   175  174  175 1   
   176  174  179 1   
   177  175  176 1   
   178  175  177 1   
   179  175  178 1   
   180  181  182 1   
   181  181  183 1   
   182  184  185 1   
   183  184  186 1   
@<TRIPOS>SUBSTRUCTURE
     1 MOL         1 TEMP              0 ****  ****    0 ROOT
