@<TRIPOS>MOLECULE
MOL
  189   185     1     0     0
SMALL
resp


@<TRIPOS>ATOM
      1 C1         -0.0300    2.5650    6.0090 c3        1 MOL     -0.384612
      2 C2         -0.1880    2.0570    4.5680 c         1 MOL      0.660769
      3 O1          0.6990    2.1970    3.7500 o         1 MOL     -0.615306
      4 H1         -0.9500    3.0590    6.3220 hc        1 MOL      0.101129
      5 H2          0.1730    1.7240    6.6720 hc        1 MOL      0.101129
      6 H3          0.7960    3.2750    6.0570 hc        1 MOL      0.101129
      7 N1         -1.3620    1.5420    4.2880 n         1 MOL     -0.511342
      8 C3         -1.8090    1.4420    2.9220 c3        1 MOL      0.195765
      9 C4         -2.3430    2.7750    2.3650 c         1 MOL      0.430464
     10 O2         -3.4120    3.2530    2.8090 o         1 MOL     -0.531523
     11 C5         -2.9630    0.4520    2.9420 c3        1 MOL     -0.444248
     12 C6         -3.7850    0.4320    1.5760 c         1 MOL      0.724385
     13 O3         -3.3500    0.8760    0.4760 o         1 MOL     -0.554719
     14 O4         -4.8940   -0.0910    1.6790 o         1 MOL     -0.554719
     15 H4         -2.0370    1.3020    5.0050 hn        1 MOL      0.328328
     16 H5         -1.0200    1.0320    2.2910 h1        1 MOL     -0.114953
     17 H6         -3.6430    0.7920    3.7290 hc        1 MOL      0.113697
     18 H7         -2.5090   -0.5150    3.1250 hc        1 MOL      0.113697
     19 N2         -1.5950    3.4200    1.5420 n         1 MOL     -0.105112
     20 C7         -1.6630    4.7740    1.0460 c3        1 MOL     -0.293999
     21 C8         -2.8460    5.0520    0.1590 c         1 MOL      0.570370
     22 O5         -3.1640    6.2400   -0.0100 o         1 MOL     -0.589264
     23 C9         -0.3990    5.2210    0.2970 c3        1 MOL      0.006068
     24 C10         0.7690    5.2890    1.2560 c3        1 MOL      0.255680
     25 C11         2.0840    5.7190    0.5820 c3        1 MOL     -0.222890
     26 C12         3.3400    5.4770    1.4550 c3        1 MOL      0.226677
     27 N3          4.5840    5.9550    0.8240 n4        1 MOL     -0.365434
     28 H8         -0.8480    2.9030    1.0990 hn        1 MOL      0.278756
     29 H9         -1.7130    5.4230    1.9250 h1        1 MOL      0.122400
     30 H10        -0.5170    6.2330   -0.1060 hc        1 MOL      0.015582
     31 H11        -0.1690    4.5810   -0.5520 hc        1 MOL      0.015582
     32 H12         0.8290    4.2890    1.6820 hc        1 MOL     -0.032298
     33 H13         0.5330    5.9820    2.0590 hc        1 MOL     -0.032298
     34 H14         2.0410    6.7890    0.3820 hc        1 MOL      0.047316
     35 H15         2.2220    5.1570   -0.3430 hc        1 MOL      0.047316
     36 H16         3.4580    4.4300    1.7470 hx        1 MOL      0.033078
     37 H17         3.2250    6.0300    2.3810 hx        1 MOL      0.033078
     38 H18         4.3950    6.8600    0.4160 hn        1 MOL      0.309031
     39 H19         5.2500    6.1280    1.5650 hn        1 MOL      0.309031
     40 H20         5.0190    5.3780    0.1180 hn        1 MOL      0.309031
     41 N4         -3.3670    4.0610   -0.4810 n         1 MOL     -0.214599
     42 C13        -4.3610    4.1750   -1.5530 c3        1 MOL     -0.038429
     43 C14        -5.6780    3.4900   -1.2480 c         1 MOL      0.390426
     44 O6         -6.6600    3.8900   -1.7790 o         1 MOL     -0.513215
     45 C15        -3.7920    3.9210   -2.9770 c3        1 MOL     -0.139131
     46 C16        -2.9550    2.6750   -3.1830 c         1 MOL      0.795729
     47 O7         -2.3300    2.5070   -4.2430 o         1 MOL     -0.727222
     48 O8         -2.9700    1.7630   -2.3210 o         1 MOL     -0.727222
     49 H21        -3.0430    3.1070   -0.4200 hn        1 MOL      0.102812
     50 H22        -4.5040    5.2490   -1.6610 h1        1 MOL      0.100073
     51 H23        -3.1480    4.7440   -3.2810 hc        1 MOL      0.046609
     52 H24        -4.5570    3.9510   -3.7570 hc        1 MOL      0.046609
     53 N5         -5.7630    2.4850   -0.3900 n         1 MOL     -0.017890
     54 C17        -6.9770    1.8530    0.1500 c3        1 MOL     -0.038686
     55 C18        -7.4600    0.7900   -0.7700 c         1 MOL      0.315637
     56 O9         -8.5780    0.9310   -1.3840 o         1 MOL     -0.519797
     57 H25        -4.8540    2.2020   -0.0330 hn        1 MOL      0.006937
     58 H26        -7.7150    2.6490    0.2090 h1        1 MOL      0.060730
     59 H27        -6.7290    1.5390    1.1630 h1        1 MOL      0.060730
     60 N6         -6.5590   -0.1240   -1.1500 n         1 MOL     -0.067455
     61 C19        -6.9030   -1.3800   -1.8100 c3        1 MOL      0.098986
     62 C20        -6.8380   -2.5070   -0.7200 c         1 MOL      0.410220
     63 O10        -7.1040   -3.6580   -1.0230 o         1 MOL     -0.540990
     64 C21        -5.9300   -1.6440   -2.9160 c3        1 MOL     -0.244182
     65 C22        -4.4210   -1.5940   -2.5830 c         1 MOL      0.635104
     66 O11        -4.0430   -1.8740   -1.4010 o         1 MOL     -0.640020
     67 O12        -3.6010   -1.1140   -3.3860 o         1 MOL     -0.640020
     68 H28        -5.6400   -0.0250   -0.7600 hn        1 MOL      0.079545
     69 H29        -7.9360   -1.4650   -2.1230 h1        1 MOL      0.081443
     70 H30        -6.1520   -0.8930   -3.6710 hc        1 MOL      0.073750
     71 H31        -6.1340   -2.6640   -3.2610 hc        1 MOL      0.073750
     72 N7         -6.5920   -2.2310    0.5450 n         1 MOL     -0.186854
     73 C23        -6.5310   -3.1950    1.6520 c3        1 MOL     -0.341558
     74 C24        -5.2060   -3.9100    1.7750 c         1 MOL      0.607959
     75 O13        -5.1640   -4.8870    2.5440 o         1 MOL     -0.564915
     76 H32        -6.2800   -1.2830    0.7140 hn        1 MOL      0.174128
     77 H33        -7.2700   -3.9870    1.4900 h1        1 MOL      0.161644
     78 H34        -6.6450   -2.6280    2.5790 h1        1 MOL      0.161644
     79 N8         -4.1460   -3.4120    1.0980 n         1 MOL     -0.130273
     80 C25        -2.9700   -4.1720    0.9080 c3        1 MOL     -0.110232
     81 C26        -1.6600   -3.2940    0.8390 c         1 MOL      0.575354
     82 O14        -1.7120   -2.0890    0.7850 o         1 MOL     -0.589825
     83 C27        -2.9480   -5.1460   -0.3140 c3        1 MOL      0.541680
     84 C28        -3.9370   -6.2940   -0.3090 c3        1 MOL     -0.535910
     85 O15        -3.2270   -4.4780   -1.4750 oh        1 MOL     -0.650951
     86 H35        -4.3190   -2.6440    0.4660 hn        1 MOL     -0.065632
     87 H36        -2.8090   -4.7620    1.8090 h1        1 MOL      0.037851
     88 H37        -1.9740   -5.6310   -0.3570 h1        1 MOL     -0.027355
     89 H38        -3.6730   -3.6390   -1.3180 ho        1 MOL      0.439925
     90 H39        -4.1150   -6.5530    0.7330 hc        1 MOL      0.132844
     91 H40        -4.9440   -5.9500   -0.5790 hc        1 MOL      0.132844
     92 H41        -3.5490   -7.0530   -0.9830 hc        1 MOL      0.132844
     93 N9         -0.5200   -3.8860    0.9910 n         1 MOL     -0.534170
     94 C29         0.6800   -3.2270    1.4270 c3        1 MOL      0.256076
     95 C30         1.7770   -3.7040    0.4670 c         1 MOL      0.444638
     96 O16         2.1260   -4.8810    0.4010 o         1 MOL     -0.518878
     97 C31         1.0490   -3.6430    2.8680 c3        1 MOL     -0.112722
     98 C32         0.1040   -3.0440    3.9210 c3        1 MOL      0.095232
     99 C33         2.4930   -3.2210    3.1760 c3        1 MOL     -0.066143
    100 C34         0.1380   -1.5500    4.1100 c3        1 MOL     -0.161419
    101 H42        -0.4200   -4.8840    1.0910 hn        1 MOL      0.280935
    102 H43         0.6510   -2.1330    1.3950 h1        1 MOL      0.045036
    103 H44         1.0650   -4.7300    2.9260 hc        1 MOL      0.057600
    104 H45         0.1650   -3.5710    4.8670 hc        1 MOL     -0.001212
    105 H46        -0.9310   -3.3290    3.7390 hc        1 MOL     -0.001212
    106 H47         2.8080   -2.2840    2.7080 hc        1 MOL      0.005423
    107 H48         2.7070   -3.1870    4.2480 hc        1 MOL      0.005423
    108 H49         3.1380   -3.9920    2.7360 hc        1 MOL      0.005423
    109 H50         0.0730   -1.1120    3.1140 hc        1 MOL      0.061815
    110 H51        -0.7380   -1.1310    4.6130 hc        1 MOL      0.061815
    111 H52         0.9920   -1.2590    4.7260 hc        1 MOL      0.061815
    112 N10         2.3230   -2.7810   -0.3810 n         1 MOL     -0.319614
    113 C35         3.5420   -2.9000   -1.2330 c3        1 MOL      0.165524
    114 C36         4.8180   -2.4380   -0.6210 c         1 MOL      0.253204
    115 O17         4.7870   -1.9210    0.5280 o         1 MOL     -0.217375
    116 C37         3.4120   -2.1300   -2.5580 c3        1 MOL      0.001562
    117 C38         2.3050   -2.5930   -3.4390 c3        1 MOL     -0.169499
    118 O18         3.1560   -0.7570   -2.3680 oh        1 MOL     -0.660157
    119 H53         1.7860   -1.9320   -0.3610 hn        1 MOL      0.163187
    120 H54         3.7270   -3.9230   -1.5760 h1        1 MOL      0.072466
    121 H55         4.3380   -2.2440   -3.1270 h1        1 MOL      0.050708
    122 H56         2.3980   -0.6820   -1.7710 ho        1 MOL      0.445848
    123 H57         1.3580   -2.3070   -2.9750 hc        1 MOL      0.068970
    124 H58         2.2690   -2.0690   -4.3950 hc        1 MOL      0.068970
    125 H59         2.2230   -3.6500   -3.7170 hc        1 MOL      0.068970
    126 N11         6.0670   -2.5680   -1.2170 n         1 MOL     -0.302951
    127 C39         7.3070   -2.2170   -0.4620 c3        1 MOL     -0.174944
    128 C40         7.3700   -0.6230   -0.2000 c         1 MOL      0.355449
    129 O19         7.7220   -0.1700    0.8930 o         1 MOL     -0.504584
    130 C41         8.6110   -2.5890   -1.1460 c3        1 MOL      0.393834
    131 C42         8.7620   -4.1000   -1.3640 c3        1 MOL     -0.447530
    132 O20         8.7660   -2.0080   -2.4050 oh        1 MOL     -0.592300
    133 H60         6.1500   -3.0560   -2.1030 hn        1 MOL      0.269886
    134 H61         7.2390   -2.6770    0.5290 h1        1 MOL      0.162741
    135 H62         9.3700   -2.2300   -0.4540 h1        1 MOL      0.028172
    136 H63         9.4620   -1.3660   -2.2850 ho        1 MOL      0.381490
    137 H64         9.7180   -4.3520   -1.8280 hc        1 MOL      0.127268
    138 H65         8.5180   -4.6510   -0.4550 hc        1 MOL      0.127268
    139 H66         7.9900   -4.3640   -2.0840 hc        1 MOL      0.127268
    140 N12         6.9150    0.1540   -1.1100 n         1 MOL     -0.094575
    141 C43         6.6990    1.6040   -0.9700 c3        1 MOL     -0.322840
    142 C44         5.6640    1.9900    0.1070 c         1 MOL      0.585205
    143 O21         5.3950    3.1320    0.3870 o         1 MOL     -0.572164
    144 C45         6.3970    2.2180   -2.3750 c3        1 MOL     -0.062144
    145 C46         4.8800    2.3150   -2.6570 c3        1 MOL      0.028321
    146 C47         4.5310    2.7120   -4.0440 c3        1 MOL     -0.110343
    147 C48         5.0680    1.6510   -5.0410 c3        1 MOL     -0.119233
    148 N13         4.1780    0.4580   -4.9270 n4        1 MOL     -0.212202
    149 H67         6.8860   -0.2280   -2.0500 hn        1 MOL      0.168310
    150 H68         7.6430    1.9560   -0.5650 h1        1 MOL      0.170296
    151 H69         6.9660    1.6890   -3.1380 hc        1 MOL      0.058293
    152 H70         6.7330    3.2500   -2.3360 hc        1 MOL      0.058293
    153 H71         4.5250    3.0990   -1.9820 hc        1 MOL      0.043879
    154 H72         4.3450    1.3930   -2.4260 hc        1 MOL      0.043879
    155 H73         5.0380    3.6510   -4.2730 hc        1 MOL      0.077718
    156 H74         3.4580    2.7580   -4.2320 hc        1 MOL      0.077718
    157 H75         6.0840    1.4060   -4.7640 hx        1 MOL      0.115916
    158 H76         4.9900    2.0340   -6.0590 hx        1 MOL      0.115916
    159 H77         4.5280   -0.3110   -5.4800 hn        1 MOL      0.295823
    160 H78         4.0960    0.2080   -3.9530 hn        1 MOL      0.295823
    161 H79         3.2190    0.6330   -5.1780 hn        1 MOL      0.295823
    162 N14         5.0600    0.9660    0.7300 n         1 MOL     -0.163899
    163 C49         4.1240    1.1730    1.8810 c3        1 MOL     -0.001641
    164 C50         4.6360    0.4190    3.1490 c         1 MOL      0.304827
    165 O22         4.5780    1.0350    4.2310 o         1 MOL     -0.520417
    166 C51         2.7490    0.6020    1.5860 c3        1 MOL      0.363229
    167 C52         2.0760    1.3520    0.4120 c3        1 MOL      0.148563
    168 C53         0.7950    0.6870   -0.1330 c         1 MOL      0.549030
    169 O23         0.8320   -0.4180   -0.7610 o         1 MOL     -0.616109
    170 O24        -0.2730    1.3220   -0.0500 o         1 MOL     -0.616109
    171 H80         5.0370    0.0940    0.2340 hn        1 MOL      0.091110
    172 H81         3.9690    2.2210    2.1190 h1        1 MOL      0.064367
    173 H82         2.0940    0.5220    2.4400 hc        1 MOL     -0.042999
    174 H83         2.8060   -0.4460    1.2890 hc        1 MOL     -0.042999
    175 H84         2.8480    1.4370   -0.3580 hc        1 MOL     -0.139811
    176 H85         1.8080    2.3300    0.8040 hc        1 MOL     -0.139811
    177 N15         5.1190   -0.8120    3.0470 n         1 MOL     -0.043793
    178 C54         5.5730   -1.7450    4.0820 c3        1 MOL     -0.255608
    179 H86         6.5930   -2.0610    3.8640 h1        1 MOL      0.109850
    180 H87         5.5450   -1.2520    5.0540 h1        1 MOL      0.109850
    181 H88         4.9180   -2.6170    4.0980 h1        1 MOL      0.109850
    182 H89         5.1800   -1.1290    2.0900 hn        1 MOL      0.042675
    183 Ca1        -1.9130   -0.3800   -1.2390 Ca        1 MOL      1.715646
    184 O25        -1.2160   -2.6820   -2.4420 oh        1 MOL     -0.900345
    185 H90        -1.0980   -2.5510   -3.3770 ho        1 MOL      0.401412
    186 H91        -1.8930   -3.3600   -2.3690 ho        1 MOL      0.401412
    187 O26        -0.6860    0.4930   -3.5340 oh        1 MOL     -0.900345
    188 H92        -1.2130    1.1690   -3.9650 ho        1 MOL      0.401412
    189 H93        -0.2090    0.0690   -4.2410 ho        1 MOL      0.401412
@<TRIPOS>BOND
     1    1    2 1   
     2    1    4 1   
     3    1    5 1   
     4    1    6 1   
     5    2    3 2   
     6    2    7 1   
     7    7    8 1   
     8    7   15 1   
     9    8    9 1   
    10    8   11 1   
    11    8   16 1   
    12    9   10 2   
    13    9   19 1   
    14   11   12 1   
    15   11   17 1   
    16   11   18 1   
    17   12   13 1   
    18   12   14 1   
    19   19   20 1   
    20   19   28 1   
    21   20   21 1   
    22   20   23 1   
    23   20   29 1   
    24   21   22 2   
    25   21   41 1   
    26   23   24 1   
    27   23   30 1   
    28   23   31 1   
    29   24   25 1   
    30   24   32 1   
    31   24   33 1   
    32   25   26 1   
    33   25   34 1   
    34   25   35 1   
    35   26   27 1   
    36   26   36 1   
    37   26   37 1   
    38   27   38 1   
    39   27   39 1   
    40   27   40 1   
    41   41   42 1   
    42   41   49 1   
    43   42   43 1   
    44   42   45 1   
    45   42   50 1   
    46   43   44 2   
    47   43   53 1   
    48   45   46 1   
    49   45   51 1   
    50   45   52 1   
    51   46   47 1   
    52   46   48 1   
    53   53   54 1   
    54   53   57 1   
    55   54   55 1   
    56   54   58 1   
    57   54   59 1   
    58   55   56 2   
    59   55   60 1   
    60   60   61 1   
    61   60   68 1   
    62   61   62 1   
    63   61   64 1   
    64   61   69 1   
    65   62   63 2   
    66   62   72 1   
    67   64   65 1   
    68   64   70 1   
    69   64   71 1   
    70   65   66 1   
    71   65   67 1   
    72   72   73 1   
    73   72   76 1   
    74   73   74 1   
    75   73   77 1   
    76   73   78 1   
    77   74   75 2   
    78   74   79 1   
    79   79   80 1   
    80   79   86 1   
    81   80   81 1   
    82   80   83 1   
    83   80   87 1   
    84   81   82 2   
    85   81   93 1   
    86   83   84 1   
    87   83   85 1   
    88   83   88 1   
    89   84   90 1   
    90   84   91 1   
    91   84   92 1   
    92   85   89 1   
    93   93   94 1   
    94   93  101 1   
    95   94   95 1   
    96   94   97 1   
    97   94  102 1   
    98   95   96 2   
    99   95  112 1   
   100   97   98 1   
   101   97   99 1   
   102   97  103 1   
   103   98  100 1   
   104   98  104 1   
   105   98  105 1   
   106   99  106 1   
   107   99  107 1   
   108   99  108 1   
   109  100  109 1   
   110  100  110 1   
   111  100  111 1   
   112  112  113 1   
   113  112  119 1   
   114  113  114 1   
   115  113  116 1   
   116  113  120 1   
   117  114  115 2   
   118  114  126 1   
   119  116  117 1   
   120  116  118 1   
   121  116  121 1   
   122  117  123 1   
   123  117  124 1   
   124  117  125 1   
   125  118  122 1   
   126  126  127 1   
   127  126  133 1   
   128  127  128 1   
   129  127  130 1   
   130  127  134 1   
   131  128  129 2   
   132  128  140 1   
   133  130  131 1   
   134  130  132 1   
   135  130  135 1   
   136  131  137 1   
   137  131  138 1   
   138  131  139 1   
   139  132  136 1   
   140  140  141 1   
   141  140  149 1   
   142  141  142 1   
   143  141  144 1   
   144  141  150 1   
   145  142  143 2   
   146  142  162 1   
   147  144  145 1   
   148  144  151 1   
   149  144  152 1   
   150  145  146 1   
   151  145  153 1   
   152  145  154 1   
   153  146  147 1   
   154  146  155 1   
   155  146  156 1   
   156  147  148 1   
   157  147  157 1   
   158  147  158 1   
   159  148  159 1   
   160  148  160 1   
   161  148  161 1   
   162  162  163 1   
   163  162  171 1   
   164  163  164 1   
   165  163  166 1   
   166  163  172 1   
   167  164  165 2   
   168  164  177 1   
   169  166  167 1   
   170  166  173 1   
   171  166  174 1   
   172  167  168 1   
   173  167  175 1   
   174  167  176 1   
   175  168  169 1   
   176  168  170 1   
   177  177  178 1   
   178  177  182 1   
   179  178  179 1   
   180  178  180 1   
   181  178  181 1   
   182  184  185 1   
   183  184  186 1   
   184  187  188 1   
   185  187  189 1   
@<TRIPOS>SUBSTRUCTURE
     1 MOL         1 TEMP              0 ****  ****    0 ROOT
