@<TRIPOS>MOLECULE
MOL
  179   176     1     0     0
SMALL
resp


@<TRIPOS>ATOM
      1 C1          0.6320    4.2850    5.4070 c3        1 MOL     -0.409983
      2 C2          0.2970    3.6000    4.0650 c         1 MOL      0.605113
      3 O1          1.1600    3.1390    3.3620 o         1 MOL     -0.555799
      4 H1          1.2310    3.6110    6.0190 hc        1 MOL      0.105055
      5 H2          1.1940    5.1990    5.2180 hc        1 MOL      0.105055
      6 H3         -0.2920    4.5280    5.9330 hc        1 MOL      0.105055
      7 N1         -0.9640    3.4350    3.7480 n         1 MOL     -0.480924
      8 C3         -1.5520    2.9690    2.4770 c3        1 MOL      0.280837
      9 C4         -2.0520    4.1740    1.6350 c         1 MOL      0.346082
     10 O2         -3.0820    4.7300    1.9830 o         1 MOL     -0.493240
     11 C5         -2.5970    1.8390    2.7610 c3        1 MOL     -0.085135
     12 C6         -3.0530    1.1230    1.5240 c         1 MOL      0.745218
     13 O3         -2.6540    1.5250    0.3740 o         1 MOL     -0.683286
     14 O4         -3.9020    0.2580    1.7380 o         1 MOL     -0.683286
     15 H4         -1.6180    3.7930    4.4350 hn        1 MOL      0.277079
     16 H5         -0.7710    2.5340    1.8680 h1        1 MOL     -0.063146
     17 H6         -3.4630    2.3310    3.2090 hc        1 MOL      0.012859
     18 H7         -2.0540    1.2360    3.4840 hc        1 MOL      0.012859
     19 N2         -1.2140    4.6090    0.6600 n         1 MOL     -0.430575
     20 C7         -1.4030    5.9260   -0.0120 c3        1 MOL      0.105388
     21 C8         -2.5190    5.9370   -1.0180 c         1 MOL      0.452587
     22 O5         -2.9800    7.0250   -1.4760 o         1 MOL     -0.570598
     23 C9         -0.1240    6.3600   -0.7500 c3        1 MOL     -0.207216
     24 C10         0.6960    7.2070    0.2050 c3        1 MOL      0.137365
     25 C11         2.0450    7.6850   -0.4760 c3        1 MOL     -0.196914
     26 C12         2.8390    8.4560    0.5110 c3        1 MOL      0.214157
     27 N3          4.2720    8.4240    0.4100 n4        1 MOL     -0.326061
     28 H8         -0.3090    4.1710    0.5530 hn        1 MOL      0.378556
     29 H9         -1.6140    6.6470    0.7820 h1        1 MOL      0.070752
     30 H10        -0.4730    6.9920   -1.5740 hc        1 MOL      0.085451
     31 H11         0.4580    5.5110   -1.1040 hc        1 MOL      0.085451
     32 H12         0.9670    6.6500    1.1030 hc        1 MOL      0.004593
     33 H13         0.0390    8.0300    0.4550 hc        1 MOL      0.004593
     34 H14         1.8330    8.1840   -1.4110 hc        1 MOL      0.070231
     35 H15         2.5660    6.7300   -0.5470 hc        1 MOL      0.070231
     36 H16         2.5080    8.0720    1.4770 hx        1 MOL      0.018871
     37 H17         2.5550    9.5010    0.4110 hx        1 MOL      0.018871
     38 H18         4.5940    8.7200   -0.5120 hn        1 MOL      0.317122
     39 H19         4.6390    9.2120    0.9400 hn        1 MOL      0.317122
     40 H20         4.6550    7.5410    0.6990 hn        1 MOL      0.317122
     41 N4         -2.9860    4.7310   -1.4150 n         1 MOL     -0.269796
     42 C13        -4.0900    4.4460   -2.3620 c3        1 MOL      0.125166
     43 C14        -5.2600    3.7200   -1.7160 c         1 MOL      0.380137
     44 O6         -6.3740    3.7880   -2.2510 o         1 MOL     -0.543331
     45 C15        -3.4100    3.6160   -3.4280 c3        1 MOL     -0.186856
     46 C16        -2.7670    2.4050   -2.8130 c         1 MOL      0.614853
     47 O7         -3.2790    1.2960   -2.7040 o         1 MOL     -0.702933
     48 O8         -1.5820    2.5800   -2.3180 o         1 MOL     -0.702933
     49 H21        -2.5970    3.9330   -0.9360 hn        1 MOL      0.108164
     50 H22        -4.4830    5.3600   -2.7960 h1        1 MOL      0.091852
     51 H23        -2.7880    4.2720   -4.0430 hc        1 MOL      0.058466
     52 H24        -4.2430    3.4610   -4.1140 hc        1 MOL      0.058466
     53 N5         -5.1090    3.1000   -0.5770 n         1 MOL     -0.083753
     54 C17        -6.2200    2.5130    0.3030 c3        1 MOL     -0.380964
     55 C18        -6.7550    1.2070   -0.2910 c         1 MOL      0.597237
     56 O9         -7.8630    0.7890    0.1070 o         1 MOL     -0.565537
     57 H25        -4.2260    2.9880   -0.0960 hn        1 MOL      0.153669
     58 H26        -7.0990    3.1530    0.2970 h1        1 MOL      0.183288
     59 H27        -5.9380    2.3300    1.3360 h1        1 MOL      0.183288
     60 N6         -5.9430    0.4540   -1.0820 n         1 MOL     -0.415946
     61 C19        -6.4480   -0.7880   -1.6100 c3        1 MOL      0.305961
     62 C20        -6.4830   -1.9300   -0.5670 c         1 MOL      0.140835
     63 O10        -7.2230   -2.9000   -0.7010 o         1 MOL     -0.485488
     64 C21        -5.6140   -1.3600   -2.7620 c3        1 MOL     -0.377634
     65 C22        -4.2550   -1.9450   -2.4710 c         1 MOL      0.788478
     66 N7         -3.8940   -2.9910   -3.1020 n         1 MOL     -0.644422
     67 O11        -3.4160   -1.4670   -1.7030 o         1 MOL     -0.685814
     68 H28        -5.1400    0.8780   -1.5220 hn        1 MOL      0.272857
     69 H29        -7.4440   -0.6360   -2.0290 h1        1 MOL      0.061702
     70 H30        -5.4490   -0.4740   -3.3820 hc        1 MOL      0.095794
     71 H31        -6.2710   -2.0550   -3.2750 hc        1 MOL      0.095794
     72 H32        -4.5050   -3.3880   -3.8060 hn        1 MOL      0.309989
     73 H33        -2.9290   -3.2890   -3.1290 hn        1 MOL      0.309989
     74 N8         -5.7760   -1.7390    0.5610 n         1 MOL      0.222755
     75 C23        -5.8050   -2.6570    1.7330 c3        1 MOL     -0.494248
     76 C24        -4.4300   -3.2000    2.0450 c         1 MOL      0.761578
     77 O12        -4.3030   -4.0260    2.9380 o         1 MOL     -0.619191
     78 H34        -5.1930   -0.9250    0.5920 hn        1 MOL      0.060131
     79 H35        -6.4260   -3.4930    1.4370 h1        1 MOL      0.182090
     80 H36        -6.1420   -2.1960    2.6650 h1        1 MOL      0.182090
     81 N9         -3.4220   -2.8420    1.3270 n         1 MOL     -0.407190
     82 C25        -2.1890   -3.5870    1.2810 c3        1 MOL      0.147915
     83 C26        -1.0770   -2.6240    1.1440 c         1 MOL      0.585026
     84 O13        -1.2350   -1.5570    0.5900 o         1 MOL     -0.651346
     85 C27        -2.2740   -4.4880    0.0720 c3        1 MOL      0.082616
     86 C28        -3.4130   -5.5850    0.1960 ca        1 MOL     -0.105394
     87 C29        -4.7000   -5.3820   -0.3840 ca        1 MOL     -0.072664
     88 C30        -3.0590   -6.7820    0.8530 ca        1 MOL     -0.072664
     89 C31        -5.6490   -6.3960   -0.2800 ca        1 MOL     -0.314389
     90 C32        -4.0470   -7.7890    0.9460 ca        1 MOL     -0.314389
     91 C33        -5.3460   -7.6080    0.3800 ca        1 MOL      0.381105
     92 O14        -6.3020   -8.5300    0.5160 oh        1 MOL     -0.451874
     93 H37        -3.5620   -2.0630    0.6940 hn        1 MOL      0.189834
     94 H38        -2.1470   -4.2500    2.1480 h1        1 MOL      0.048205
     95 H39        -1.3060   -4.9800   -0.0340 hc        1 MOL     -0.037649
     96 H40        -2.4690   -3.9290   -0.8430 hc        1 MOL     -0.037649
     97 H41        -4.9590   -4.4420   -0.8460 ha        1 MOL      0.114010
     98 H42        -2.0600   -7.0060    1.1930 ha        1 MOL      0.114010
     99 H43        -6.6400   -6.1740   -0.6470 ha        1 MOL      0.153736
    100 H44        -3.8020   -8.7070    1.4610 ha        1 MOL      0.153736
    101 H45        -5.9230   -9.3350    0.8750 ho        1 MOL      0.339341
    102 N10         0.1900   -3.0230    1.5660 n         1 MOL     -0.599398
    103 C34         1.4260   -2.2920    1.5830 c3        1 MOL     -0.032225
    104 C35         2.5520   -3.2810    1.0750 c         1 MOL      0.521378
    105 O15         2.8210   -4.2780    1.7750 o         1 MOL     -0.533641
    106 C36         1.7890   -1.6730    2.9620 c3        1 MOL     -0.122552
    107 C37         0.8660   -0.4990    3.2580 c3        1 MOL      0.178783
    108 C38         3.2630   -1.2540    3.0100 c3        1 MOL     -0.056014
    109 C39         1.0510    0.0790    4.6910 c3        1 MOL     -0.102543
    110 H46         0.2260   -3.9010    2.0600 hn        1 MOL      0.324537
    111 H47         1.2750   -1.4660    0.8970 h1        1 MOL      0.174800
    112 H48         1.5890   -2.4070    3.7390 hc        1 MOL      0.054846
    113 H49        -0.1630   -0.8270    3.1210 hc        1 MOL     -0.005976
    114 H50         1.0010    0.2150    2.4370 hc        1 MOL     -0.005976
    115 H51         3.4740   -0.6490    3.8970 hc        1 MOL      0.018588
    116 H52         3.8830   -2.1330    3.1980 hc        1 MOL      0.018588
    117 H53         3.6200   -0.7790    2.0910 hc        1 MOL      0.018588
    118 H54         1.8670    0.8000    4.6830 hc        1 MOL      0.023060
    119 H55         0.1400    0.5800    5.0020 hc        1 MOL      0.023060
    120 H56         1.2160   -0.6940    5.4410 hc        1 MOL      0.023060
    121 N11         3.1160   -3.0330   -0.0510 n         1 MOL     -0.353864
    122 C40         4.2850   -3.7120   -0.6350 c3        1 MOL      0.051920
    123 C41         5.6130   -3.3080    0.0310 c         1 MOL      0.340041
    124 O16         5.6530   -2.3770    0.8070 o         1 MOL     -0.306402
    125 C42         4.4300   -3.4860   -2.1010 c3        1 MOL     -0.145056
    126 O17         4.6110   -2.0880   -2.3870 oh        1 MOL     -0.418085
    127 H57         2.6760   -2.2940   -0.5650 hn        1 MOL      0.297478
    128 H58         4.1240   -4.7690   -0.4130 h1        1 MOL      0.074695
    129 H59         3.5210   -3.8700   -2.5600 h1        1 MOL      0.086616
    130 H60         5.3230   -3.9990   -2.4740 h1        1 MOL      0.086616
    131 H61         3.7520   -1.9920   -2.8010 ho        1 MOL      0.357095
    132 N12         6.6530   -4.1070   -0.2490 n         1 MOL     -0.358263
    133 C43         8.0450   -3.7590    0.1320 c3        1 MOL      0.129136
    134 C44         8.6990   -2.5140   -0.5590 c         1 MOL      0.426758
    135 O18         9.5110   -1.8500    0.0410 o         1 MOL     -0.495609
    136 C45         8.9410   -4.9910   -0.2730 c3        1 MOL     -0.154137
    137 H62         6.5230   -4.9760   -0.7530 hn        1 MOL      0.273423
    138 H63         8.0500   -3.6830    1.2190 h1        1 MOL      0.068203
    139 H64         8.4860   -5.8880    0.1490 hc        1 MOL      0.043235
    140 H65         8.8360   -4.9240   -1.3580 hc        1 MOL      0.043235
    141 H66         9.9270   -4.7720    0.1290 hc        1 MOL      0.043235
    142 N13         8.2750   -2.2590   -1.7760 n         1 MOL     -0.299729
    143 C46         8.5470   -0.9250   -2.4060 c3        1 MOL     -0.024374
    144 C47         7.6990    0.2860   -1.9060 c         1 MOL      0.384766
    145 O19         8.1070    1.4600   -1.8210 o         1 MOL     -0.508727
    146 C48         8.3400   -1.1260   -3.9560 c3        1 MOL     -0.158347
    147 H67         7.6090   -2.8410   -2.2680 hn        1 MOL      0.271681
    148 H68         9.5970   -0.7780   -2.1560 h1        1 MOL      0.114729
    149 H69         8.7950   -0.3140   -4.5230 hc        1 MOL      0.052122
    150 H70         8.7920   -2.0520   -4.3130 hc        1 MOL      0.052122
    151 H71         7.2660   -1.0620   -4.1350 hc        1 MOL      0.052122
    152 N14         6.4650   -0.0230   -1.5090 n         1 MOL      0.005425
    153 C49         5.5950    0.9840   -0.8500 c3        1 MOL     -0.209290
    154 C50         6.0580    1.4000    0.5640 c         1 MOL      0.475869
    155 O20         6.1070    2.6010    0.8330 o         1 MOL     -0.546966
    156 C51         4.1430    0.4140   -0.8380 c3        1 MOL      0.100215
    157 C52         3.2010    1.4170   -0.3070 c3        1 MOL     -0.151301
    158 C53         1.6930    0.9950   -0.2900 c         1 MOL      0.970972
    159 O21         0.7310    1.7520    0.0660 o         1 MOL     -0.871032
    160 O22         1.3820    0.0110   -0.9960 o         1 MOL     -0.871032
    161 H72         6.0080   -0.8520   -1.8520 hn        1 MOL      0.043768
    162 H73         5.6480    1.8870   -1.4560 h1        1 MOL      0.101087
    163 H74         3.9850   -0.5290   -0.3130 hc        1 MOL     -0.008278
    164 H75         3.8120    0.2970   -1.8710 hc        1 MOL     -0.008278
    165 H76         3.2050    2.3200   -0.9260 hc        1 MOL      0.017885
    166 H77         3.4510    1.6480    0.7290 hc        1 MOL      0.017885
    167 N15         6.4060    0.4730    1.4520 n         1 MOL      0.002022
    168 C54         7.1700    0.7000    2.6700 c3        1 MOL     -0.419997
    169 H78         7.5040   -0.2570    3.0720 h1        1 MOL      0.146538
    170 H79         8.0360    1.3210    2.4470 h1        1 MOL      0.146538
    171 H80         6.5420    1.2030    3.4060 h1        1 MOL      0.146538
    172 H81         6.2350   -0.4730    1.1370 hn        1 MOL      0.037373
    173 Ca1        -1.2180    0.2820   -1.3170 Ca        1 MOL      1.801072
    174 O23        -0.4960   -2.0830   -2.5390 oh        1 MOL     -0.748433
    175 H82        -0.7010   -2.4200   -3.4110 ho        1 MOL      0.378657
    176 H83        -0.1350   -2.8410   -2.0640 ho        1 MOL      0.378657
    177 O24         0.0190    0.6350   -3.8340 oh        1 MOL     -0.748433
    178 H84        -0.1360    0.5050   -4.7620 ho        1 MOL      0.378657
    179 H85         0.8730    1.0620   -3.7980 ho        1 MOL      0.378657
@<TRIPOS>BOND
     1    1    2 1   
     2    1    4 1   
     3    1    5 1   
     4    1    6 1   
     5    2    3 2   
     6    2    7 1   
     7    7    8 1   
     8    7   15 1   
     9    8    9 1   
    10    8   11 1   
    11    8   16 1   
    12    9   10 2   
    13    9   19 1   
    14   11   12 1   
    15   11   17 1   
    16   11   18 1   
    17   12   13 1   
    18   12   14 1   
    19   19   20 1   
    20   19   28 1   
    21   20   21 1   
    22   20   23 1   
    23   20   29 1   
    24   21   22 2   
    25   21   41 1   
    26   23   24 1   
    27   23   30 1   
    28   23   31 1   
    29   24   25 1   
    30   24   32 1   
    31   24   33 1   
    32   25   26 1   
    33   25   34 1   
    34   25   35 1   
    35   26   27 1   
    36   26   36 1   
    37   26   37 1   
    38   27   38 1   
    39   27   39 1   
    40   27   40 1   
    41   41   42 1   
    42   41   49 1   
    43   42   43 1   
    44   42   45 1   
    45   42   50 1   
    46   43   44 2   
    47   43   53 1   
    48   45   46 1   
    49   45   51 1   
    50   45   52 1   
    51   46   47 1   
    52   46   48 1   
    53   53   54 1   
    54   53   57 1   
    55   54   55 1   
    56   54   58 1   
    57   54   59 1   
    58   55   56 2   
    59   55   60 1   
    60   60   61 1   
    61   60   68 1   
    62   61   62 1   
    63   61   64 1   
    64   61   69 1   
    65   62   63 2   
    66   62   74 1   
    67   64   65 1   
    68   64   70 1   
    69   64   71 1   
    70   65   66 1   
    71   65   67 2   
    72   66   72 1   
    73   66   73 1   
    74   74   75 1   
    75   74   78 1   
    76   75   76 1   
    77   75   79 1   
    78   75   80 1   
    79   76   77 2   
    80   76   81 1   
    81   81   82 1   
    82   81   93 1   
    83   82   83 1   
    84   82   85 1   
    85   82   94 1   
    86   83   84 2   
    87   83  102 1   
    88   85   86 1   
    89   85   95 1   
    90   85   96 1   
    91   86   87 ar  
    92   86   88 ar  
    93   87   89 ar  
    94   87   97 1   
    95   88   90 ar  
    96   88   98 1   
    97   89   91 ar  
    98   89   99 1   
    99   90   91 ar  
   100   90  100 1   
   101   91   92 1   
   102   92  101 1   
   103  102  103 1   
   104  102  110 1   
   105  103  104 1   
   106  103  106 1   
   107  103  111 1   
   108  104  105 2   
   109  104  121 1   
   110  106  107 1   
   111  106  108 1   
   112  106  112 1   
   113  107  109 1   
   114  107  113 1   
   115  107  114 1   
   116  108  115 1   
   117  108  116 1   
   118  108  117 1   
   119  109  118 1   
   120  109  119 1   
   121  109  120 1   
   122  121  122 1   
   123  121  127 1   
   124  122  123 1   
   125  122  125 1   
   126  122  128 1   
   127  123  124 2   
   128  123  132 1   
   129  125  126 1   
   130  125  129 1   
   131  125  130 1   
   132  126  131 1   
   133  132  133 1   
   134  132  137 1   
   135  133  134 1   
   136  133  136 1   
   137  133  138 1   
   138  134  135 2   
   139  134  142 1   
   140  136  139 1   
   141  136  140 1   
   142  136  141 1   
   143  142  143 1   
   144  142  147 1   
   145  143  144 1   
   146  143  146 1   
   147  143  148 1   
   148  144  145 2   
   149  144  152 1   
   150  146  149 1   
   151  146  150 1   
   152  146  151 1   
   153  152  153 1   
   154  152  161 1   
   155  153  154 1   
   156  153  156 1   
   157  153  162 1   
   158  154  155 2   
   159  154  167 1   
   160  156  157 1   
   161  156  163 1   
   162  156  164 1   
   163  157  158 1   
   164  157  165 1   
   165  157  166 1   
   166  158  159 1   
   167  158  160 1   
   168  167  168 1   
   169  167  172 1   
   170  168  169 1   
   171  168  170 1   
   172  168  171 1   
   173  174  175 1   
   174  174  176 1   
   175  177  178 1   
   176  177  179 1   
@<TRIPOS>SUBSTRUCTURE
     1 MOL         1 TEMP              0 ****  ****    0 ROOT
