@<TRIPOS>MOLECULE
MOL
  179   176     1     0     0
SMALL
resp


@<TRIPOS>ATOM
      1 C1         -0.0170    4.6470    5.4580 c3        1 MOL     -0.423188
      2 C2         -0.2300    4.1610    3.9830 c         1 MOL      0.712648
      3 O1          0.4300    4.7990    3.1490 o         1 MOL     -0.578121
      4 H1          0.9480    4.2900    5.8210 hc        1 MOL      0.105903
      5 H2         -0.0360    5.7360    5.4890 hc        1 MOL      0.105903
      6 H3         -0.8120    4.2510    6.0900 hc        1 MOL      0.105903
      7 N1         -1.0940    3.1870    3.6870 n         1 MOL     -0.514170
      8 C3         -1.4520    2.8080    2.2740 c3        1 MOL     -0.058735
      9 C4         -2.1320    4.0490    1.5910 c         1 MOL      0.421807
     10 O2         -3.1770    4.4820    2.1330 o         1 MOL     -0.531618
     11 C5         -2.3380    1.5950    2.2930 c3        1 MOL     -0.022242
     12 C6         -2.6650    1.1330    0.8550 c         1 MOL      0.572035
     13 O3         -1.9130    1.3820   -0.1050 o         1 MOL     -0.644530
     14 O4         -3.8330    0.7340    0.6770 o         1 MOL     -0.644530
     15 H4         -1.5430    2.7040    4.4500 hn        1 MOL      0.312056
     16 H5         -0.5200    2.6180    1.7460 h1        1 MOL      0.050431
     17 H6         -3.2750    1.7610    2.8260 hc        1 MOL      0.033661
     18 H7         -1.7980    0.7730    2.7590 hc        1 MOL      0.033661
     19 N2         -1.5940    4.4160    0.4880 n         1 MOL     -0.088224
     20 C7         -2.0570    5.5740   -0.2960 c3        1 MOL     -0.065230
     21 C8         -3.0770    5.2520   -1.3860 c         1 MOL      0.484342
     22 O5         -3.9440    6.0530   -1.6660 o         1 MOL     -0.543354
     23 C9         -0.8870    6.3640   -0.9220 c3        1 MOL     -0.045569
     24 C10         0.0080    6.8040    0.1700 c3        1 MOL     -0.007186
     25 C11        -0.7410    7.8490    1.1200 c3        1 MOL     -0.167281
     26 C12         0.1410    8.7640    2.0170 c3        1 MOL      0.180448
     27 N3         -0.6940    9.6950    2.8020 n4        1 MOL     -0.393694
     28 H8         -0.7410    3.9560    0.2140 hn        1 MOL      0.247705
     29 H9         -2.6470    6.1540    0.4110 h1        1 MOL      0.035206
     30 H10        -1.2940    7.1500   -1.5630 hc        1 MOL      0.048163
     31 H11        -0.3950    5.7260   -1.6510 hc        1 MOL      0.048163
     32 H12         0.8670    7.2450   -0.3240 hc        1 MOL      0.035701
     33 H13         0.3960    5.9540    0.7370 hc        1 MOL      0.035701
     34 H14        -1.3090    7.2210    1.8060 hc        1 MOL      0.069938
     35 H15        -1.2690    8.6240    0.5610 hc        1 MOL      0.069938
     36 H16         0.8690    9.3060    1.4110 hx        1 MOL      0.050141
     37 H17         0.7500    8.1650    2.6940 hx        1 MOL      0.050141
     38 H18        -0.1410   10.2920    3.4000 hn        1 MOL      0.328347
     39 H19        -1.3340   10.2590    2.2740 hn        1 MOL      0.328347
     40 H20        -1.2920    9.2520    3.4890 hn        1 MOL      0.328347
     41 N4         -2.9880    4.0410   -1.9320 n         1 MOL     -0.221048
     42 C13        -3.8210    3.7030   -3.1260 c3        1 MOL     -0.155337
     43 C14        -5.1580    2.9830   -2.8510 c         1 MOL      0.418189
     44 O6         -6.0230    3.0640   -3.7560 o         1 MOL     -0.499984
     45 C15        -3.0120    2.8210   -4.1660 c3        1 MOL     -0.098608
     46 C16        -2.3300    1.6390   -3.5230 c         1 MOL      0.615940
     47 O7         -1.1170    1.5140   -3.2340 o         1 MOL     -0.711417
     48 O8         -3.1220    0.6840   -3.2320 o         1 MOL     -0.711417
     49 H21        -2.2260    3.4950   -1.5610 hn        1 MOL      0.169400
     50 H22        -4.0440    4.6610   -3.5800 h1        1 MOL      0.154286
     51 H23        -2.2640    3.4610   -4.6300 hc        1 MOL      0.053308
     52 H24        -3.6760    2.5400   -4.9860 hc        1 MOL      0.053308
     53 N5         -5.4200    2.5020   -1.6140 n         1 MOL     -0.175415
     54 C17        -6.7860    2.1290   -1.1500 c3        1 MOL     -0.175948
     55 C18        -7.2140    0.6040   -1.1440 c         1 MOL      0.485529
     56 O9         -8.4240    0.2800   -1.2100 o         1 MOL     -0.555708
     57 H25        -4.7830    2.7300   -0.8670 hn        1 MOL      0.266598
     58 H26        -7.5480    2.5580   -1.8080 h1        1 MOL      0.099357
     59 H27        -6.8550    2.5070   -0.1280 h1        1 MOL      0.099357
     60 N6         -6.2110   -0.2640   -1.0940 n         1 MOL     -0.032483
     61 C19        -6.3960   -1.7120   -0.9470 c3        1 MOL     -0.108676
     62 C20        -6.0950   -2.3760    0.4190 c         1 MOL      0.407216
     63 O10        -6.1390   -3.5970    0.5020 o         1 MOL     -0.440265
     64 C21        -5.7450   -2.5140   -2.1040 c3        1 MOL     -0.193354
     65 C22        -4.2150   -2.4990   -2.1450 c         1 MOL      0.754837
     66 N7         -3.7300   -2.9800   -3.2920 n         1 MOL     -0.776535
     67 O11        -3.4950   -1.9560   -1.2960 o         1 MOL     -0.659546
     68 H28        -5.2530    0.0610   -1.1040 hn        1 MOL      0.039457
     69 H29        -7.4740   -1.8900   -1.0610 h1        1 MOL      0.132552
     70 H30        -6.1500   -2.0900   -3.0270 hc        1 MOL      0.082799
     71 H31        -6.0100   -3.5530   -1.9580 hc        1 MOL      0.082799
     72 H32        -4.3790   -3.1900   -4.0320 hn        1 MOL      0.355362
     73 H33        -2.7400   -2.9610   -3.4990 hn        1 MOL      0.355362
     74 N8         -5.7360   -1.6080    1.4390 n         1 MOL     -0.391669
     75 C23        -5.1770   -1.9510    2.7520 c3        1 MOL      0.070911
     76 C24        -3.9580   -2.9490    2.7020 c         1 MOL      0.302353
     77 O12        -3.8430   -3.6470    3.6950 o         1 MOL     -0.524117
     78 H34        -5.5600   -0.6500    1.1830 hn        1 MOL      0.242697
     79 H35        -5.9350   -2.2440    3.4820 h1        1 MOL      0.067594
     80 H36        -4.7750   -1.0070    3.1260 h1        1 MOL      0.067594
     81 N9         -3.1600   -3.0030    1.6460 n         1 MOL      0.018172
     82 C25        -1.8270   -3.6040    1.6750 c3        1 MOL      0.249675
     83 C26        -0.6040   -2.6040    1.5500 c         1 MOL      0.294015
     84 O13        -0.7460   -1.6430    0.7810 o         1 MOL     -0.653615
     85 C27        -1.7220   -4.5680    0.4640 c3        1 MOL      0.020266
     86 C28        -2.4070   -5.9150    0.6940 ca        1 MOL     -0.068516
     87 C29        -3.7310   -6.1180    0.3050 ca        1 MOL     -0.090873
     88 C30        -1.7010   -6.9920    1.2750 ca        1 MOL     -0.090873
     89 C31        -4.3150   -7.4560    0.5330 ca        1 MOL     -0.286265
     90 C32        -2.2910   -8.2370    1.5410 ca        1 MOL     -0.286265
     91 C33        -3.6260   -8.4520    1.2020 ca        1 MOL      0.370447
     92 O14        -4.1990   -9.6610    1.2570 oh        1 MOL     -0.479154
     93 H37        -3.4300   -2.4680    0.8360 hn        1 MOL      0.111954
     94 H38        -1.6990   -4.1950    2.5870 h1        1 MOL     -0.009507
     95 H39        -0.7520   -4.7970    0.0440 hc        1 MOL      0.017707
     96 H40        -2.1950   -4.0500   -0.3730 hc        1 MOL      0.017707
     97 H41        -4.2550   -5.2280   -0.0210 ha        1 MOL      0.086530
     98 H42        -0.6700   -6.7780    1.5080 ha        1 MOL      0.086530
     99 H43        -5.3360   -7.6310    0.2390 ha        1 MOL      0.145978
    100 H44        -1.6490   -9.0350    1.9080 ha        1 MOL      0.145978
    101 H45        -3.6600  -10.2600    1.7690 ho        1 MOL      0.354621
    102 N10         0.6030   -2.9450    2.0120 n         1 MOL     -0.455620
    103 C34         1.8570   -2.1570    1.8980 c3        1 MOL     -0.219861
    104 C35         2.9350   -3.0920    1.3860 c         1 MOL      0.694396
    105 O15         3.2100   -4.1020    2.0200 o         1 MOL     -0.563624
    106 C36         2.1880   -1.4590    3.2290 c3        1 MOL     -0.029335
    107 C37         1.1160   -0.3330    3.5510 c3        1 MOL      0.197854
    108 C38         3.6050   -0.8580    3.2630 c3        1 MOL      0.022243
    109 C39         1.3810    0.3770    4.8460 c3        1 MOL     -0.237504
    110 H46         0.6150   -3.8210    2.5130 hn        1 MOL      0.333474
    111 H47         1.7450   -1.4060    1.1120 h1        1 MOL      0.128360
    112 H48         2.1580   -2.1370    4.0820 hc        1 MOL      0.057580
    113 H49         0.1000   -0.7190    3.6250 hc        1 MOL      0.019723
    114 H50         1.2030    0.4730    2.8240 hc        1 MOL      0.019723
    115 H51         4.3290   -1.6090    2.9500 hc        1 MOL     -0.005057
    116 H52         3.5700    0.0190    2.6120 hc        1 MOL     -0.005057
    117 H53         3.7490   -0.5910    4.3100 hc        1 MOL     -0.005057
    118 H54         0.4550    0.8370    5.2070 hc        1 MOL      0.043578
    119 H55         1.6860   -0.3690    5.5830 hc        1 MOL      0.043578
    120 H56         2.0710    1.2070    4.6790 hc        1 MOL      0.043578
    121 N11         3.5080   -2.7560    0.2110 n         1 MOL     -0.446546
    122 C40         4.7080   -3.4000   -0.3480 c3        1 MOL     -0.027930
    123 C41         6.0120   -2.6650    0.0020 c         1 MOL      0.410947
    124 O16         5.9770   -1.6250    0.6280 o         1 MOL     -0.301696
    125 C42         4.5320   -3.4980   -1.8760 c3        1 MOL      0.082624
    126 O17         4.3400   -2.1470   -2.3900 oh        1 MOL     -0.607154
    127 H57         3.0720   -2.0100   -0.3180 hn        1 MOL      0.384286
    128 H58         4.7720   -4.4170    0.0350 h1        1 MOL      0.068994
    129 H59         3.6070   -4.0470   -2.0690 h1        1 MOL      0.040803
    130 H60         5.3970   -3.9720   -2.3440 h1        1 MOL      0.040803
    131 H61         3.5420   -1.7090   -2.0920 ho        1 MOL      0.385668
    132 N12         7.2470   -3.1100   -0.3760 n         1 MOL     -0.408389
    133 C43         8.5290   -2.3360   -0.2270 c3        1 MOL     -0.022015
    134 C44         8.6670   -0.9350   -0.9260 c         1 MOL      0.543372
    135 O18         9.1670    0.0370   -0.3320 o         1 MOL     -0.530812
    136 C45         9.6330   -3.3280   -0.6620 c3        1 MOL     -0.177394
    137 H62         7.2630   -4.0240   -0.8020 hn        1 MOL      0.287613
    138 H63         8.7650   -2.2410    0.8300 h1        1 MOL      0.117154
    139 H64        10.6220   -2.8710   -0.6290 hc        1 MOL      0.060355
    140 H65         9.6170   -4.2330   -0.0590 hc        1 MOL      0.060355
    141 H66         9.4480   -3.6650   -1.6850 hc        1 MOL      0.060355
    142 N13         8.1400   -0.8730   -2.1340 n         1 MOL     -0.415068
    143 C46         7.9220    0.3590   -2.9710 c3        1 MOL      0.066412
    144 C47         7.1510    1.5310   -2.3040 c         1 MOL      0.380603
    145 O19         7.1920    2.7000   -2.7200 o         1 MOL     -0.502762
    146 C48         7.2210   -0.1130   -4.2470 c3        1 MOL     -0.410313
    147 H67         7.5100   -1.6280   -2.3550 hn        1 MOL      0.292567
    148 H68         8.9470    0.6970   -3.1810 h1        1 MOL      0.110875
    149 H69         6.2630   -0.6210   -4.0800 hc        1 MOL      0.124952
    150 H70         6.8700    0.7910   -4.7520 hc        1 MOL      0.124952
    151 H71         7.9030   -0.7360   -4.8240 hc        1 MOL      0.124952
    152 N14         6.2980    1.0910   -1.3130 n         1 MOL      0.001297
    153 C49         5.3800    1.9490   -0.5440 c3        1 MOL     -0.016287
    154 C50         5.9610    2.2280    0.8150 c         1 MOL      0.418341
    155 O20         6.0270    3.3590    1.2770 o         1 MOL     -0.538255
    156 C51         4.0080    1.2740   -0.4230 c3        1 MOL      0.135523
    157 C52         3.3500    1.1390   -1.7450 c3        1 MOL     -0.273151
    158 C53         2.1270    0.2250   -1.5460 c         1 MOL      0.811601
    159 O21         0.9380    0.6670   -1.3880 o         1 MOL     -0.754130
    160 O22         2.4150   -0.9920   -1.4770 o         1 MOL     -0.754130
    161 H72         6.0880    0.1100   -1.2450 hn        1 MOL      0.022615
    162 H73         5.1930    2.9490   -0.9260 h1        1 MOL      0.056916
    163 H74         3.3970    1.9230    0.2110 hc        1 MOL      0.008861
    164 H75         4.1260    0.2790    0.0010 hc        1 MOL      0.008861
    165 H76         3.9490    0.7280   -2.5500 hc        1 MOL      0.071441
    166 H77         3.0460    2.1180   -2.1200 hc        1 MOL      0.071441
    167 N15         6.3610    1.1260    1.4950 n         1 MOL     -0.095208
    168 C54         7.0690    1.1940    2.7710 c3        1 MOL     -0.209538
    169 H78         7.7660    2.0310    2.7530 h1        1 MOL      0.089128
    170 H79         6.3510    1.3370    3.5780 h1        1 MOL      0.089128
    171 H80         7.6180    0.2670    2.9320 h1        1 MOL      0.089128
    172 H81         6.0790    0.2450    1.0760 hn        1 MOL      0.014994
    173 Ca1        -1.3550   -0.4800   -1.6160 Ca        1 MOL      1.798950
    174 O23        -1.3230   -1.3550   -4.1390 oh        1 MOL     -0.866150
    175 H82        -0.6450   -1.5030   -4.7950 ho        1 MOL      0.429121
    176 H83        -2.0530   -0.9740   -4.6260 ho        1 MOL      0.429121
    177 O24         0.3200   -2.6210   -1.7630 oh        1 MOL     -0.866150
    178 H84         1.1480   -2.1640   -1.6300 ho        1 MOL      0.429121
    179 H85         0.5610   -3.5110   -2.0030 ho        1 MOL      0.429121
@<TRIPOS>BOND
     1    1    2 1   
     2    1    4 1   
     3    1    5 1   
     4    1    6 1   
     5    2    3 2   
     6    2    7 1   
     7    7    8 1   
     8    7   15 1   
     9    8    9 1   
    10    8   11 1   
    11    8   16 1   
    12    9   10 2   
    13    9   19 1   
    14   11   12 1   
    15   11   17 1   
    16   11   18 1   
    17   12   13 1   
    18   12   14 1   
    19   19   20 1   
    20   19   28 1   
    21   20   21 1   
    22   20   23 1   
    23   20   29 1   
    24   21   22 2   
    25   21   41 1   
    26   23   24 1   
    27   23   30 1   
    28   23   31 1   
    29   24   25 1   
    30   24   32 1   
    31   24   33 1   
    32   25   26 1   
    33   25   34 1   
    34   25   35 1   
    35   26   27 1   
    36   26   36 1   
    37   26   37 1   
    38   27   38 1   
    39   27   39 1   
    40   27   40 1   
    41   41   42 1   
    42   41   49 1   
    43   42   43 1   
    44   42   45 1   
    45   42   50 1   
    46   43   44 2   
    47   43   53 1   
    48   45   46 1   
    49   45   51 1   
    50   45   52 1   
    51   46   47 1   
    52   46   48 1   
    53   53   54 1   
    54   53   57 1   
    55   54   55 1   
    56   54   58 1   
    57   54   59 1   
    58   55   56 2   
    59   55   60 1   
    60   60   61 1   
    61   60   68 1   
    62   61   62 1   
    63   61   64 1   
    64   61   69 1   
    65   62   63 2   
    66   62   74 1   
    67   64   65 1   
    68   64   70 1   
    69   64   71 1   
    70   65   66 1   
    71   65   67 2   
    72   66   72 1   
    73   66   73 1   
    74   74   75 1   
    75   74   78 1   
    76   75   76 1   
    77   75   79 1   
    78   75   80 1   
    79   76   77 2   
    80   76   81 1   
    81   81   82 1   
    82   81   93 1   
    83   82   83 1   
    84   82   85 1   
    85   82   94 1   
    86   83   84 2   
    87   83  102 1   
    88   85   86 1   
    89   85   95 1   
    90   85   96 1   
    91   86   87 ar  
    92   86   88 ar  
    93   87   89 ar  
    94   87   97 1   
    95   88   90 ar  
    96   88   98 1   
    97   89   91 ar  
    98   89   99 1   
    99   90   91 ar  
   100   90  100 1   
   101   91   92 1   
   102   92  101 1   
   103  102  103 1   
   104  102  110 1   
   105  103  104 1   
   106  103  106 1   
   107  103  111 1   
   108  104  105 2   
   109  104  121 1   
   110  106  107 1   
   111  106  108 1   
   112  106  112 1   
   113  107  109 1   
   114  107  113 1   
   115  107  114 1   
   116  108  115 1   
   117  108  116 1   
   118  108  117 1   
   119  109  118 1   
   120  109  119 1   
   121  109  120 1   
   122  121  122 1   
   123  121  127 1   
   124  122  123 1   
   125  122  125 1   
   126  122  128 1   
   127  123  124 2   
   128  123  132 1   
   129  125  126 1   
   130  125  129 1   
   131  125  130 1   
   132  126  131 1   
   133  132  133 1   
   134  132  137 1   
   135  133  134 1   
   136  133  136 1   
   137  133  138 1   
   138  134  135 2   
   139  134  142 1   
   140  136  139 1   
   141  136  140 1   
   142  136  141 1   
   143  142  143 1   
   144  142  147 1   
   145  143  144 1   
   146  143  146 1   
   147  143  148 1   
   148  144  145 2   
   149  144  152 1   
   150  146  149 1   
   151  146  150 1   
   152  146  151 1   
   153  152  153 1   
   154  152  161 1   
   155  153  154 1   
   156  153  156 1   
   157  153  162 1   
   158  154  155 2   
   159  154  167 1   
   160  156  157 1   
   161  156  163 1   
   162  156  164 1   
   163  157  158 1   
   164  157  165 1   
   165  157  166 1   
   166  158  159 1   
   167  158  160 1   
   168  167  168 1   
   169  167  172 1   
   170  168  169 1   
   171  168  170 1   
   172  168  171 1   
   173  174  175 1   
   174  174  176 1   
   175  177  178 1   
   176  177  179 1   
@<TRIPOS>SUBSTRUCTURE
     1 MOL         1 TEMP              0 ****  ****    0 ROOT
