@<TRIPOS>MOLECULE
MOL
  172   171     1     0     0
SMALL
resp


@<TRIPOS>ATOM
      1 C1          0.6870    3.9220    5.5040 c3        1 MOL     -0.374731
      2 C2          0.0950    3.9870    4.0760 c         1 MOL      0.753348
      3 O1          0.6060    4.5370    3.1690 o         1 MOL     -0.538332
      4 H1          1.7650    3.7730    5.4440 hc        1 MOL      0.079720
      5 H2          0.4780    4.8550    6.0270 hc        1 MOL      0.079720
      6 H3          0.2350    3.0920    6.0470 hc        1 MOL      0.079720
      7 N1         -1.1090    3.3720    4.0630 n         1 MOL     -0.606829
      8 C3         -1.8710    3.2100    2.8280 c3        1 MOL      0.058599
      9 C4         -2.1610    4.5550    2.0520 c         1 MOL      0.618704
     10 O2         -2.4270    5.5870    2.7150 o         1 MOL     -0.599733
     11 C5         -3.1970    2.5170    3.1320 c3        1 MOL     -0.217880
     12 C6         -3.9040    2.0860    1.7410 c         1 MOL      0.568932
     13 O3         -5.1160    1.7920    1.7380 o         1 MOL     -0.617112
     14 O4         -3.1550    1.8310    0.7690 o         1 MOL     -0.617112
     15 H4         -1.4910    3.0900    4.9560 hn        1 MOL      0.331753
     16 H5         -1.3390    2.5640    2.1220 h1        1 MOL      0.093426
     17 H6         -3.9070    3.0730    3.7360 hc        1 MOL      0.048444
     18 H7         -2.8660    1.7650    3.8450 hc        1 MOL      0.048444
     19 N2         -2.0470    4.5120    0.7380 n         1 MOL     -0.566231
     20 C7         -2.2340    5.6270   -0.1770 c3        1 MOL      0.271300
     21 C8         -3.1190    5.2780   -1.3610 c         1 MOL      0.358309
     22 O5         -3.4010    6.1740   -2.1970 o         1 MOL     -0.565905
     23 C9         -0.8300    6.0170   -0.6270 c3        1 MOL     -0.075439
     24 H8         -1.7220    3.6210    0.3920 hn        1 MOL      0.348295
     25 H9         -2.6410    6.5160    0.3060 h1        1 MOL      0.027903
     26 H10        -0.9000    6.8100   -1.3740 hc        1 MOL      0.017895
     27 H11        -0.3020    6.4880    0.2020 hc        1 MOL      0.017895
     28 H12        -0.2050    5.1810   -0.9380 hc        1 MOL      0.017895
     29 N3         -3.5380    4.0400   -1.5160 n         1 MOL     -0.270990
     30 C10        -4.4040    3.5240   -2.5640 c3        1 MOL      0.058927
     31 C11        -5.7280    2.8400   -2.1880 c         1 MOL      0.483290
     32 O6         -6.5880    2.7240   -3.0950 o         1 MOL     -0.570203
     33 C12        -3.6020    2.6820   -3.5280 c3        1 MOL      0.025403
     34 C13        -3.0200    1.4380   -2.8750 c         1 MOL      0.548608
     35 O7         -3.7180    0.8250   -2.0180 o         1 MOL     -0.655420
     36 O8         -1.9330    0.9020   -3.1720 o         1 MOL     -0.655420
     37 H13        -3.2480    3.3480   -0.8350 hn        1 MOL      0.199807
     38 H14        -4.8020    4.3770   -3.1240 h1        1 MOL      0.064912
     39 H15        -2.8520    3.3070   -3.9960 hc        1 MOL      0.003172
     40 H16        -4.2580    2.5130   -4.3880 hc        1 MOL      0.003172
     41 N4         -6.0590    2.5030   -0.9120 n         1 MOL     -0.361557
     42 C14        -7.3240    1.8380   -0.6350 c3        1 MOL     -0.144388
     43 C15        -7.3790    0.3610   -0.8340 c         1 MOL      0.612158
     44 O9         -8.3870   -0.2000   -0.4420 o         1 MOL     -0.647818
     45 H17        -5.3150    2.4860   -0.2270 hn        1 MOL      0.223992
     46 H18        -8.1030    2.2560   -1.2840 h1        1 MOL      0.106963
     47 H19        -7.6110    2.0470    0.3920 h1        1 MOL      0.106963
     48 N5         -6.3560   -0.3320   -1.3240 n         1 MOL     -0.341766
     49 C16        -6.4910   -1.6530   -1.8410 c3        1 MOL      0.249653
     50 C17        -6.5170   -2.7430   -0.7170 c         1 MOL      0.342081
     51 O10        -6.6860   -3.8800   -1.0990 o         1 MOL     -0.509578
     52 C18        -5.4870   -1.9760   -3.0160 c3        1 MOL     -0.375806
     53 C19        -4.0440   -2.0850   -2.6090 c         1 MOL      0.682837
     54 N6         -3.1030   -2.1160   -3.5220 n         1 MOL     -0.496840
     55 O11        -3.6810   -2.0330   -1.4400 o         1 MOL     -0.599851
     56 H20        -5.5160    0.1560   -1.6100 hn        1 MOL      0.162209
     57 H21        -7.4480   -1.7400   -2.3430 h1        1 MOL      0.043874
     58 H22        -5.6130   -1.1190   -3.6820 hc        1 MOL      0.101849
     59 H23        -5.8030   -2.9310   -3.4500 hc        1 MOL      0.101849
     60 H24        -3.2980   -2.3450   -4.4860 hn        1 MOL      0.275855
     61 H25        -2.1680   -2.1560   -3.1370 hn        1 MOL      0.275855
     62 N7         -6.3480   -2.4860    0.5950 n         1 MOL     -0.212540
     63 C20        -6.3360   -3.5320    1.7280 c3        1 MOL     -0.247585
     64 C21        -5.1000   -4.4220    1.8210 c         1 MOL      0.560838
     65 O12        -5.0750   -5.3610    2.5930 o         1 MOL     -0.587286
     66 H26        -6.2950   -1.5170    0.8580 hn        1 MOL      0.250934
     67 H27        -7.2240   -4.1260    1.5350 h1        1 MOL      0.118463
     68 H28        -6.5180   -2.9750    2.6450 h1        1 MOL      0.118463
     69 N8         -3.9730   -3.9960    1.2650 n         1 MOL     -0.130560
     70 C22        -2.6180   -4.6490    1.3000 c3        1 MOL     -0.324823
     71 C23        -1.5850   -3.5560    1.2510 c         1 MOL      0.497023
     72 O13        -1.5860   -2.6200    0.4390 o         1 MOL     -0.323592
     73 C24        -2.3150   -5.3890    0.0340 c3        1 MOL      0.563810
     74 C25        -3.0380   -6.7090    0.1200 c3        1 MOL     -0.451159
     75 O14        -2.6770   -4.7880   -1.2300 oh        1 MOL     -0.563361
     76 H29        -3.9950   -3.1410    0.7370 hn        1 MOL      0.199426
     77 H30        -2.4180   -5.1890    2.2290 h1        1 MOL      0.149670
     78 H31        -1.2390   -5.5880   -0.0170 h1        1 MOL     -0.011308
     79 H32        -2.4450   -3.8620   -1.1380 ho        1 MOL      0.233947
     80 H33        -2.4720   -7.3830   -0.5170 hc        1 MOL      0.102952
     81 H34        -2.8950   -7.0810    1.1420 hc        1 MOL      0.102952
     82 H35        -4.0650   -6.6960   -0.2390 hc        1 MOL      0.102952
     83 N9         -0.5150   -3.6920    2.1060 n         1 MOL     -0.540497
     84 C26         0.7010   -2.9220    1.9650 c3        1 MOL      0.031129
     85 C27         1.3520   -3.2030    0.6330 c         1 MOL      0.413050
     86 O15         1.4720   -4.3130    0.1880 o         1 MOL     -0.562599
     87 C28         1.6410   -3.1480    3.2080 c3        1 MOL      0.090671
     88 C29         0.9000   -2.6060    4.4300 c3        1 MOL     -0.018448
     89 C30         3.0180   -2.4400    2.9160 c3        1 MOL     -0.119972
     90 C31         1.7520   -2.7260    5.7140 c3        1 MOL     -0.317150
     91 H36        -0.4390   -4.4710    2.7510 hn        1 MOL      0.287109
     92 H37         0.3790   -1.8750    1.8990 h1        1 MOL      0.032682
     93 H38         1.7820   -4.2220    3.3210 hc        1 MOL      0.012661
     94 H39        -0.0930   -3.0050    4.6100 hc        1 MOL      0.037073
     95 H40         0.6980   -1.5350    4.3610 hc        1 MOL      0.037073
     96 H41         3.4960   -3.0200    2.1380 hc        1 MOL      0.030907
     97 H42         2.7390   -1.4180    2.6460 hc        1 MOL      0.030907
     98 H43         3.6510   -2.4510    3.8100 hc        1 MOL      0.030907
     99 H44         2.6350   -2.0910    5.6730 hc        1 MOL      0.076500
    100 H45         1.2500   -2.3200    6.5900 hc        1 MOL      0.076500
    101 H46         2.1110   -3.7470    5.8370 hc        1 MOL      0.076500
    102 N10         1.6860   -2.1160   -0.0030 n         1 MOL     -0.115213
    103 C32         2.4100   -1.9880   -1.2420 c3        1 MOL      0.045975
    104 C33         3.8180   -1.5030   -0.9050 c         1 MOL      0.434414
    105 O16         4.0070   -1.0290    0.2140 o         1 MOL     -0.349945
    106 C34         1.7670   -1.0870   -2.3420 c3        1 MOL     -0.166369
    107 C35         0.3680   -1.6470   -2.7860 c         1 MOL      0.612403
    108 O17        -0.5850   -1.6100   -1.9120 o         1 MOL     -0.629029
    109 O18         0.1260   -1.9350   -3.9900 o         1 MOL     -0.629029
    110 H47         1.5290   -1.2840    0.5560 hn        1 MOL      0.140544
    111 H48         2.5000   -2.9790   -1.6800 h1        1 MOL      0.061099
    112 H49         2.4190   -1.1290   -3.2180 hc        1 MOL      0.034977
    113 H50         1.6580   -0.0680   -1.9470 hc        1 MOL      0.034977
    114 N11         4.8950   -1.7260   -1.7490 n         1 MOL     -0.685065
    115 C36         6.2780   -1.4090   -1.3890 c3        1 MOL      0.376572
    116 C37         6.6820    0.0770   -1.0650 c         1 MOL      0.218886
    117 O19         7.4350    0.2430   -0.1100 o         1 MOL     -0.476468
    118 C38         7.2760   -1.9850   -2.4340 c3        1 MOL     -0.125601
    119 C39         8.7460   -1.8830   -2.0810 ca        1 MOL      0.216592
    120 C40         9.2250   -2.4200   -0.8710 ca        1 MOL     -0.292152
    121 C41         9.6260   -1.1950   -2.9300 ca        1 MOL     -0.292152
    122 C42        10.4970   -2.0730   -0.4250 ca        1 MOL      0.041790
    123 C43        10.8760   -0.7900   -2.4560 ca        1 MOL      0.041790
    124 C44        11.3480   -1.3060   -1.2490 ca        1 MOL     -0.265080
    125 H51         4.7800   -2.2520   -2.6020 hn        1 MOL      0.358646
    126 H52         6.4590   -1.9390   -0.4550 h1        1 MOL      0.048003
    127 H53         7.0820   -1.4280   -3.3480 hc        1 MOL      0.024215
    128 H54         7.0200   -3.0260   -2.6550 hc        1 MOL      0.024215
    129 H55         8.5250   -2.8500   -0.1710 ha        1 MOL      0.131416
    130 H56         9.3840   -0.8950   -3.9340 ha        1 MOL      0.131416
    131 H57        10.7500   -2.3250    0.5980 ha        1 MOL      0.080654
    132 H58        11.5380   -0.2010   -3.0690 ha        1 MOL      0.080654
    133 H59        12.3020   -0.8900   -0.9330 ha        1 MOL      0.123666
    134 N12         6.2670    1.1190   -1.8530 n         1 MOL      0.017183
    135 C45         6.3150    2.5650   -1.5050 c3        1 MOL     -0.085836
    136 C46         5.4940    2.8590   -0.1700 c         1 MOL      0.446064
    137 O20         5.7720    3.9340    0.3380 o         1 MOL     -0.520209
    138 C47         5.6060    3.3730   -2.6380 c3        1 MOL     -0.222448
    139 C48         4.7570    2.3100   -3.2740 c3        1 MOL      0.025700
    140 C49         5.6160    1.0470   -3.1880 c3        1 MOL     -0.164443
    141 H60         7.3360    2.9090   -1.3700 h1        1 MOL      0.101782
    142 H61         4.9330    4.1820   -2.3260 hc        1 MOL      0.103544
    143 H62         6.3550    3.6390   -3.3850 hc        1 MOL      0.103544
    144 H63         3.8590    2.2060   -2.6710 hc        1 MOL      0.035668
    145 H64         4.6300    2.6440   -4.3040 hc        1 MOL      0.035668
    146 H65         5.0320    0.1380   -3.2900 h1        1 MOL      0.068027
    147 H66         6.4600    1.1510   -3.8690 h1        1 MOL      0.068027
    148 N13         4.7640    1.8950    0.4690 n         1 MOL     -0.305141
    149 C50         4.1100    2.0350    1.7240 c3        1 MOL     -0.043940
    150 C51         4.7640    1.1450    2.8070 c         1 MOL      0.472245
    151 O21         4.6650    1.5020    3.9750 o         1 MOL     -0.566407
    152 C52         2.6410    1.5470    1.5920 c3        1 MOL      0.045735
    153 C53         1.8710    2.1270    0.3670 c3        1 MOL     -0.004818
    154 C54         0.4190    1.4770    0.2940 c         1 MOL      0.638032
    155 O22         0.2120    0.3570    0.7320 o         1 MOL     -0.756718
    156 O23        -0.4900    2.0680   -0.2810 o         1 MOL     -0.756718
    157 H67         4.5650    1.0910   -0.1130 hn        1 MOL      0.286394
    158 H68         4.1100    3.0730    2.0560 h1        1 MOL      0.103350
    159 H69         2.0470    1.8780    2.4400 hc        1 MOL      0.005809
    160 H70         2.6700    0.4550    1.5740 hc        1 MOL      0.005809
    161 H71         2.4010    1.8650   -0.5390 hc        1 MOL      0.024177
    162 H72         1.8480    3.2110    0.5450 hc        1 MOL      0.024177
    163 N14         5.5120    0.1140    2.4520 n         1 MOL     -0.129385
    164 C55         6.5170   -0.5980    3.2460 c3        1 MOL     -0.212440
    165 H73         7.3390   -0.9040    2.6000 h1        1 MOL      0.086494
    166 H74         6.8950    0.0600    4.0280 h1        1 MOL      0.086494
    167 H75         6.0640   -1.4800    3.7000 h1        1 MOL      0.086494
    168 H76         5.3080   -0.2850    1.5380 hn        1 MOL      0.107655
    169 Ca1        -2.0800   -0.1210   -0.3260 Ca        1 MOL      1.737596
    170 O24        -3.5590   -1.1780    1.8120 oh        1 MOL     -1.059974
    171 H77        -4.4330   -0.9170    2.0720 ho        1 MOL      0.468496
    172 H78        -3.0580   -1.2160    2.6290 ho        1 MOL      0.468496
@<TRIPOS>BOND
     1    1    2 1   
     2    1    4 1   
     3    1    5 1   
     4    1    6 1   
     5    2    3 2   
     6    2    7 1   
     7    7    8 1   
     8    7   15 1   
     9    8    9 1   
    10    8   11 1   
    11    8   16 1   
    12    9   10 2   
    13    9   19 1   
    14   11   12 1   
    15   11   17 1   
    16   11   18 1   
    17   12   13 1   
    18   12   14 1   
    19   19   20 1   
    20   19   24 1   
    21   20   21 1   
    22   20   23 1   
    23   20   25 1   
    24   21   22 2   
    25   21   29 1   
    26   23   26 1   
    27   23   27 1   
    28   23   28 1   
    29   29   30 1   
    30   29   37 1   
    31   30   31 1   
    32   30   33 1   
    33   30   38 1   
    34   31   32 2   
    35   31   41 1   
    36   33   34 1   
    37   33   39 1   
    38   33   40 1   
    39   34   35 1   
    40   34   36 1   
    41   41   42 1   
    42   41   45 1   
    43   42   43 1   
    44   42   46 1   
    45   42   47 1   
    46   43   44 2   
    47   43   48 1   
    48   48   49 1   
    49   48   56 1   
    50   49   50 1   
    51   49   52 1   
    52   49   57 1   
    53   50   51 2   
    54   50   62 1   
    55   52   53 1   
    56   52   58 1   
    57   52   59 1   
    58   53   54 1   
    59   53   55 2   
    60   54   60 1   
    61   54   61 1   
    62   62   63 1   
    63   62   66 1   
    64   63   64 1   
    65   63   67 1   
    66   63   68 1   
    67   64   65 2   
    68   64   69 1   
    69   69   70 1   
    70   69   76 1   
    71   70   71 1   
    72   70   73 1   
    73   70   77 1   
    74   71   72 2   
    75   71   83 1   
    76   73   74 1   
    77   73   75 1   
    78   73   78 1   
    79   74   80 1   
    80   74   81 1   
    81   74   82 1   
    82   75   79 1   
    83   83   84 1   
    84   83   91 1   
    85   84   85 1   
    86   84   87 1   
    87   84   92 1   
    88   85   86 2   
    89   85  102 1   
    90   87   88 1   
    91   87   89 1   
    92   87   93 1   
    93   88   90 1   
    94   88   94 1   
    95   88   95 1   
    96   89   96 1   
    97   89   97 1   
    98   89   98 1   
    99   90   99 1   
   100   90  100 1   
   101   90  101 1   
   102  102  103 1   
   103  102  110 1   
   104  103  104 1   
   105  103  106 1   
   106  103  111 1   
   107  104  105 2   
   108  104  114 1   
   109  106  107 1   
   110  106  112 1   
   111  106  113 1   
   112  107  108 1   
   113  107  109 1   
   114  114  115 1   
   115  114  125 1   
   116  115  116 1   
   117  115  118 1   
   118  115  126 1   
   119  116  117 2   
   120  116  134 1   
   121  118  119 1   
   122  118  127 1   
   123  118  128 1   
   124  119  120 ar  
   125  119  121 ar  
   126  120  122 ar  
   127  120  129 1   
   128  121  123 ar  
   129  121  130 1   
   130  122  124 ar  
   131  122  131 1   
   132  123  124 ar  
   133  123  132 1   
   134  124  133 1   
   135  134  135 1   
   136  134  140 1   
   137  135  136 1   
   138  135  138 1   
   139  135  141 1   
   140  136  137 2   
   141  136  148 1   
   142  138  139 1   
   143  138  142 1   
   144  138  143 1   
   145  139  140 1   
   146  139  144 1   
   147  139  145 1   
   148  140  146 1   
   149  140  147 1   
   150  148  149 1   
   151  148  157 1   
   152  149  150 1   
   153  149  152 1   
   154  149  158 1   
   155  150  151 2   
   156  150  163 1   
   157  152  153 1   
   158  152  159 1   
   159  152  160 1   
   160  153  154 1   
   161  153  161 1   
   162  153  162 1   
   163  154  155 1   
   164  154  156 1   
   165  163  164 1   
   166  163  168 1   
   167  164  165 1   
   168  164  166 1   
   169  164  167 1   
   170  170  171 1   
   171  170  172 1   
@<TRIPOS>SUBSTRUCTURE
     1 MOL         1 TEMP              0 ****  ****    0 ROOT
