@<TRIPOS>MOLECULE
MOL
  189   185     1     0     0
SMALL
resp


@<TRIPOS>ATOM
      1 C1         -0.5510    2.9980    5.9970 c3        1 MOL     -0.298315
      2 C2         -0.7850    2.5580    4.5190 c         1 MOL      0.728319
      3 O1         -0.0370    2.9670    3.6490 o         1 MOL     -0.536569
      4 H1         -1.3310    2.5750    6.6290 hc        1 MOL      0.074412
      5 H2          0.4220    2.6400    6.3330 hc        1 MOL      0.074412
      6 H3         -0.5820    4.0850    6.0610 hc        1 MOL      0.074412
      7 N1         -1.8960    1.8100    4.2100 n         1 MOL     -0.679740
      8 C3         -2.3230    1.7110    2.8610 c3        1 MOL      0.299313
      9 C4         -2.6800    3.0480    2.1880 c         1 MOL      0.277803
     10 O2         -3.4140    3.9330    2.6880 o         1 MOL     -0.526461
     11 C5         -3.5910    0.8720    2.7980 c3        1 MOL     -0.385374
     12 C6         -4.0730    0.6610    1.3610 c         1 MOL      1.023266
     13 O3         -5.1370    0.0940    1.1680 o         1 MOL     -0.788289
     14 O4         -3.3720    0.9870    0.3900 o         1 MOL     -0.788289
     15 H4         -2.5740    1.5830    4.9240 hn        1 MOL      0.364121
     16 H5         -1.5920    1.1820    2.2530 h1        1 MOL      0.051241
     17 H6         -4.3660    1.2720    3.4420 hc        1 MOL      0.084630
     18 H7         -3.2480   -0.0790    3.2110 hc        1 MOL      0.084630
     19 N2         -2.0210    3.3790    1.0190 n         1 MOL     -0.053650
     20 C7         -2.0880    4.7000    0.3120 c3        1 MOL     -0.017852
     21 C8         -3.1420    4.8140   -0.7880 c         1 MOL      0.641717
     22 O5         -3.4000    5.8560   -1.3120 o         1 MOL     -0.590240
     23 C9         -0.6120    5.0280   -0.0840 c3        1 MOL      0.055476
     24 C10         0.3260    4.9090    1.1490 c3        1 MOL     -0.001991
     25 C11         0.0030    5.7970    2.3400 c3        1 MOL     -0.154742
     26 C12         1.1790    5.7560    3.3630 c3        1 MOL      0.144012
     27 N3          0.9280    6.4760    4.6070 n4        1 MOL     -0.482476
     28 H8         -1.5970    2.6670    0.4450 hn        1 MOL      0.085309
     29 H9         -2.4460    5.4270    1.0340 h1        1 MOL      0.016644
     30 H10        -0.4840    6.0590   -0.4240 hc        1 MOL     -0.026804
     31 H11        -0.2770    4.3460   -0.8650 hc        1 MOL     -0.026804
     32 H12         1.3250    5.1390    0.7690 hc        1 MOL      0.046287
     33 H13         0.3890    3.8940    1.5240 hc        1 MOL      0.046287
     34 H14        -0.9080    5.4860    2.8540 hc        1 MOL      0.055197
     35 H15        -0.0040    6.8250    1.9930 hc        1 MOL      0.055197
     36 H16         1.9950    6.2280    2.8190 hx        1 MOL      0.037096
     37 H17         1.3860    4.6910    3.4730 hx        1 MOL      0.037096
     38 H18         1.7430    6.4660    5.2020 hn        1 MOL      0.353169
     39 H19         0.7980    7.4570    4.4320 hn        1 MOL      0.353169
     40 H20         0.1660    6.0160    5.1000 hn        1 MOL      0.353169
     41 N4         -3.6560    3.6860   -1.3030 n         1 MOL     -0.505627
     42 C13        -4.4920    3.6760   -2.5420 c3        1 MOL      0.150048
     43 C14        -5.8050    2.9050   -2.4130 c         1 MOL      0.466058
     44 O6         -6.7660    3.0720   -3.2290 o         1 MOL     -0.559829
     45 C15        -3.6580    3.3420   -3.8810 c3        1 MOL     -0.318890
     46 C16        -2.7970    2.1460   -3.8410 c         1 MOL      0.827371
     47 O7         -2.8020    1.3070   -2.9100 o         1 MOL     -0.708352
     48 O8         -2.0420    1.9820   -4.7990 o         1 MOL     -0.708352
     49 H21        -3.1290    2.8510   -1.0540 hn        1 MOL      0.298675
     50 H22        -4.9700    4.6490   -2.6390 h1        1 MOL      0.073297
     51 H23        -3.1000    4.2240   -4.1740 hc        1 MOL      0.081343
     52 H24        -4.4440    3.1910   -4.6210 hc        1 MOL      0.081343
     53 N5         -5.9210    2.0910   -1.3140 n         1 MOL     -0.278768
     54 C17        -7.1850    1.5260   -0.9390 c3        1 MOL     -0.030352
     55 C18        -7.4270    0.0180   -1.1750 c         1 MOL      0.406033
     56 O9         -8.5360   -0.4770   -1.0510 o         1 MOL     -0.565510
     57 H25        -5.0680    1.7860   -0.8610 hn        1 MOL      0.093187
     58 H26        -8.0300    2.1540   -1.1990 h1        1 MOL      0.091664
     59 H27        -7.2810    1.7030    0.1300 h1        1 MOL      0.091664
     60 N6         -6.3890   -0.7480   -1.5620 n         1 MOL     -0.124557
     61 C19        -6.5130   -2.1780   -1.9320 c3        1 MOL     -0.079839
     62 C20        -6.4240   -3.1510   -0.7510 c         1 MOL      0.443777
     63 O10        -6.5660   -4.3680   -0.9050 o         1 MOL     -0.526075
     64 C21        -5.5160   -2.6170   -3.0160 c3        1 MOL     -0.193365
     65 C22        -4.0850   -2.2350   -2.5440 c         1 MOL      0.553128
     66 O11        -3.7950   -2.2050   -1.3290 o         1 MOL     -0.627721
     67 O12        -3.2850   -1.8030   -3.4210 o         1 MOL     -0.627721
     68 H28        -5.4350   -0.4230   -1.5770 hn        1 MOL      0.150623
     69 H29        -7.5010   -2.3040   -2.3620 h1        1 MOL      0.125987
     70 H30        -5.6690   -2.0210   -3.9160 hc        1 MOL      0.074495
     71 H31        -5.6650   -3.6790   -3.2480 hc        1 MOL      0.074495
     72 N7         -6.3850   -2.5850    0.4450 n         1 MOL     -0.216600
     73 C23        -6.4380   -3.4470    1.5420 c3        1 MOL     -0.203054
     74 C24        -5.0940   -4.1240    1.7750 c         1 MOL      0.482171
     75 O13        -5.0090   -5.1970    2.4310 o         1 MOL     -0.568614
     76 H32        -6.2340   -1.5910    0.5390 hn        1 MOL      0.325546
     77 H33        -7.0930   -4.3160    1.4880 h1        1 MOL      0.113000
     78 H34        -6.6190   -2.8710    2.4580 h1        1 MOL      0.113000
     79 N8         -3.9970   -3.6170    1.1980 n         1 MOL     -0.134260
     80 C25        -2.6500   -4.1530    1.3750 c3        1 MOL     -0.161553
     81 C26        -1.5620   -3.0560    1.4050 c         1 MOL      0.645909
     82 O14        -1.8300   -1.8690    0.9210 o         1 MOL     -0.684166
     83 C27        -2.2170   -5.1980    0.2970 c3        1 MOL      0.389717
     84 C28        -2.6370   -6.5900    0.6970 c3        1 MOL     -0.355319
     85 O15        -2.9110   -4.9960   -0.9340 oh        1 MOL     -0.591710
     86 H35        -4.1860   -2.7770    0.6710 hn        1 MOL      0.090212
     87 H36        -2.6130   -4.5510    2.3910 h1        1 MOL      0.090570
     88 H37        -1.1370   -5.1300    0.2150 h1        1 MOL      0.012462
     89 H38        -3.7330   -4.6540   -0.5690 ho        1 MOL      0.402791
     90 H39        -3.7280   -6.6660    0.7530 hc        1 MOL      0.090487
     91 H40        -2.2540   -7.3470    0.0080 hc        1 MOL      0.090487
     92 H41        -2.2790   -6.8630    1.6900 hc        1 MOL      0.090487
     93 N9         -0.4340   -3.3390    2.0120 n         1 MOL     -0.528735
     94 C29         0.8480   -2.6450    2.0680 c3        1 MOL      0.057126
     95 C30         1.8060   -3.2640    1.1360 c         1 MOL      0.432700
     96 O16         2.1240   -4.4280    1.3070 o         1 MOL     -0.538366
     97 C31         1.2810   -2.5060    3.5260 c3        1 MOL     -0.013548
     98 C32         0.2080   -1.6710    4.3290 c3        1 MOL      0.228440
     99 C33         2.7440   -2.1360    3.5210 c3        1 MOL     -0.104751
    100 C34         0.5030   -1.4900    5.7910 c3        1 MOL     -0.216683
    101 H42        -0.2980   -4.2920    2.3240 hn        1 MOL      0.284183
    102 H43         0.6420   -1.6220    1.7650 h1        1 MOL      0.149763
    103 H44         1.2290   -3.4570    4.0580 hc        1 MOL      0.011359
    104 H45        -0.7630   -2.1560    4.2180 hc        1 MOL     -0.034320
    105 H46         0.0310   -0.6980    3.8700 hc        1 MOL     -0.034320
    106 H47         2.8900   -1.3160    2.8170 hc        1 MOL      0.027498
    107 H48         3.1920   -1.8610    4.4770 hc        1 MOL      0.027498
    108 H49         3.3880   -2.9860    3.2900 hc        1 MOL      0.027498
    109 H50        -0.2730   -0.8350    6.1870 hc        1 MOL      0.042969
    110 H51         0.3700   -2.4080    6.3600 hc        1 MOL      0.042969
    111 H52         1.4270   -0.9300    5.8890 hc        1 MOL      0.042969
    112 N10         2.4100   -2.5620    0.1620 n         1 MOL     -0.136685
    113 C35         3.5080   -3.0360   -0.6610 c3        1 MOL     -0.036977
    114 C36         4.9670   -2.7600   -0.0900 c         1 MOL      0.365398
    115 O17         5.1430   -2.1320    0.9130 o         1 MOL     -0.315068
    116 C37         3.4220   -2.3180   -2.0150 c3        1 MOL      0.106522
    117 C38         2.1940   -2.6950   -2.8750 c3        1 MOL     -0.376461
    118 O18         3.3620   -0.9450   -1.7620 oh        1 MOL     -0.297489
    119 H53         2.0570   -1.6390   -0.0440 hn        1 MOL      0.195146
    120 H54         3.4230   -4.1050   -0.8970 h1        1 MOL      0.084209
    121 H55         4.3220   -2.5340   -2.5900 h1        1 MOL      0.033085
    122 H56         3.2160   -0.6730   -2.6690 ho        1 MOL      0.308122
    123 H57         1.2960   -2.2470   -2.4410 hc        1 MOL      0.106165
    124 H58         2.3230   -2.2550   -3.8650 hc        1 MOL      0.106165
    125 H59         2.0600   -3.7680   -2.9970 hc        1 MOL      0.106165
    126 N11         5.9510   -3.2370   -0.8490 n         1 MOL     -0.372037
    127 C39         7.4220   -2.8990   -0.6320 c3        1 MOL     -0.068458
    128 C40         7.5650   -1.4160   -0.5720 c         1 MOL      0.435474
    129 O19         8.3470   -0.9740    0.2850 o         1 MOL     -0.495915
    130 C41         8.3400   -3.5220   -1.6810 c3        1 MOL      0.258581
    131 C42         8.2860   -5.0320   -1.6360 c3        1 MOL     -0.257757
    132 O20         7.8510   -3.1660   -2.9820 oh        1 MOL     -0.636358
    133 H60         5.7860   -3.8570   -1.6310 hn        1 MOL      0.308337
    134 H61         7.8340   -3.2810    0.2920 h1        1 MOL      0.127505
    135 H62         9.3590   -3.1600   -1.5760 h1        1 MOL      0.059337
    136 H63         8.5950   -3.4200   -3.5320 ho        1 MOL      0.401370
    137 H64         8.7930   -5.5250   -2.4610 hc        1 MOL      0.078188
    138 H65         8.8860   -5.2500   -0.7440 hc        1 MOL      0.078188
    139 H66         7.2520   -5.3790   -1.6020 hc        1 MOL      0.078188
    140 N12         6.9680   -0.5930   -1.4560 n         1 MOL     -0.288541
    141 C43         7.0890    0.9130   -1.4960 c3        1 MOL     -0.024065
    142 C44         6.3900    1.5930   -0.3010 c         1 MOL      0.289700
    143 O21         6.9610    2.5300    0.2590 o         1 MOL     -0.479454
    144 C45         6.4250    1.3520   -2.7790 c3        1 MOL     -0.106419
    145 C46         6.1540    2.9430   -3.0000 c3        1 MOL      0.202733
    146 C47         5.4770    3.1570   -4.3450 c3        1 MOL     -0.183899
    147 C48         5.3740    4.6370   -4.7990 c3        1 MOL      0.022216
    148 N13         4.2180    5.3400   -4.2260 n4        1 MOL     -0.392260
    149 H67         6.4310   -1.0710   -2.1730 hn        1 MOL      0.209262
    150 H68         8.1330    1.2130   -1.5540 h1        1 MOL      0.128157
    151 H69         5.4670    0.8350   -2.7840 hc        1 MOL      0.039721
    152 H70         7.0100    0.9380   -3.6070 hc        1 MOL      0.039721
    153 H71         7.0710    3.5340   -3.0220 hc        1 MOL     -0.019051
    154 H72         5.4880    3.2800   -2.2030 hc        1 MOL     -0.019051
    155 H73         4.5210    2.6480   -4.3190 hc        1 MOL      0.061246
    156 H74         6.1760    2.6760   -5.0320 hc        1 MOL      0.061246
    157 H75         5.0970    4.4860   -5.8470 hx        1 MOL      0.109199
    158 H76         6.3240    5.1590   -4.8150 hx        1 MOL      0.109199
    159 H77         4.0930    6.3070   -4.4900 hn        1 MOL      0.325668
    160 H78         3.4170    4.7750   -4.4910 hn        1 MOL      0.325668
    161 H79         4.2300    5.2600   -3.2170 hn        1 MOL      0.325668
    162 N14         5.1220    1.1620   -0.0460 n         1 MOL      0.009849
    163 C49         4.3520    1.5560    1.1100 c3        1 MOL     -0.099823
    164 C50         5.0380    1.1650    2.4140 c         1 MOL      0.449773
    165 O22         5.0030    1.8770    3.4050 o         1 MOL     -0.594118
    166 C51         2.9040    1.0940    1.0800 c3        1 MOL     -0.014354
    167 C52         2.0760    1.7340   -0.0670 c3        1 MOL      0.103071
    168 C53         0.7190    1.0690   -0.2230 c         1 MOL      0.695434
    169 O23         0.6050   -0.1340   -0.0640 o         1 MOL     -0.745223
    170 O24        -0.3140    1.7510   -0.4940 o         1 MOL     -0.745223
    171 H80         4.7720    0.4210   -0.6400 hn        1 MOL      0.048888
    172 H81         4.2970    2.6360    1.2010 h1        1 MOL      0.042674
    173 H82         2.4870    1.3750    2.0550 hc        1 MOL      0.016019
    174 H83         2.9360    0.0160    0.9650 hc        1 MOL      0.016019
    175 H84         2.6390    1.6440   -0.9960 hc        1 MOL     -0.082398
    176 H85         1.9830    2.8130    0.1090 hc        1 MOL     -0.082398
    177 N15         5.7270    0.0520    2.5060 n         1 MOL      0.068191
    178 C54         6.4870   -0.4080    3.6840 c3        1 MOL     -0.316736
    179 H86         7.5410   -0.1600    3.5560 h1        1 MOL      0.116919
    180 H87         6.1050    0.0850    4.5780 h1        1 MOL      0.116919
    181 H88         6.3780   -1.4870    3.7880 h1        1 MOL      0.116919
    182 H89         5.6130   -0.5310    1.6890 hn        1 MOL     -0.004288
    183 Ca1        -1.8280   -0.4820   -1.2150 Ca        1 MOL      1.793268
    184 O25        -1.1060   -3.0640   -1.6080 oh        1 MOL     -0.894994
    185 H90        -0.6540   -3.4290   -2.3690 ho        1 MOL      0.422042
    186 H91        -1.8150   -3.6780   -1.4330 ho        1 MOL      0.422042
    187 O26        -0.4680   -0.4810   -3.5530 oh        1 MOL     -0.894994
    188 H92         0.3740   -0.1050   -3.8050 ho        1 MOL      0.422042
    189 H93        -0.9290   -0.6170   -4.3740 ho        1 MOL      0.422042
@<TRIPOS>BOND
     1    1    2 1   
     2    1    4 1   
     3    1    5 1   
     4    1    6 1   
     5    2    3 2   
     6    2    7 1   
     7    7    8 1   
     8    7   15 1   
     9    8    9 1   
    10    8   11 1   
    11    8   16 1   
    12    9   10 2   
    13    9   19 1   
    14   11   12 1   
    15   11   17 1   
    16   11   18 1   
    17   12   13 1   
    18   12   14 1   
    19   19   20 1   
    20   19   28 1   
    21   20   21 1   
    22   20   23 1   
    23   20   29 1   
    24   21   22 2   
    25   21   41 1   
    26   23   24 1   
    27   23   30 1   
    28   23   31 1   
    29   24   25 1   
    30   24   32 1   
    31   24   33 1   
    32   25   26 1   
    33   25   34 1   
    34   25   35 1   
    35   26   27 1   
    36   26   36 1   
    37   26   37 1   
    38   27   38 1   
    39   27   39 1   
    40   27   40 1   
    41   41   42 1   
    42   41   49 1   
    43   42   43 1   
    44   42   45 1   
    45   42   50 1   
    46   43   44 2   
    47   43   53 1   
    48   45   46 1   
    49   45   51 1   
    50   45   52 1   
    51   46   47 1   
    52   46   48 1   
    53   53   54 1   
    54   53   57 1   
    55   54   55 1   
    56   54   58 1   
    57   54   59 1   
    58   55   56 2   
    59   55   60 1   
    60   60   61 1   
    61   60   68 1   
    62   61   62 1   
    63   61   64 1   
    64   61   69 1   
    65   62   63 2   
    66   62   72 1   
    67   64   65 1   
    68   64   70 1   
    69   64   71 1   
    70   65   66 1   
    71   65   67 1   
    72   72   73 1   
    73   72   76 1   
    74   73   74 1   
    75   73   77 1   
    76   73   78 1   
    77   74   75 2   
    78   74   79 1   
    79   79   80 1   
    80   79   86 1   
    81   80   81 1   
    82   80   83 1   
    83   80   87 1   
    84   81   82 2   
    85   81   93 1   
    86   83   84 1   
    87   83   85 1   
    88   83   88 1   
    89   84   90 1   
    90   84   91 1   
    91   84   92 1   
    92   85   89 1   
    93   93   94 1   
    94   93  101 1   
    95   94   95 1   
    96   94   97 1   
    97   94  102 1   
    98   95   96 2   
    99   95  112 1   
   100   97   98 1   
   101   97   99 1   
   102   97  103 1   
   103   98  100 1   
   104   98  104 1   
   105   98  105 1   
   106   99  106 1   
   107   99  107 1   
   108   99  108 1   
   109  100  109 1   
   110  100  110 1   
   111  100  111 1   
   112  112  113 1   
   113  112  119 1   
   114  113  114 1   
   115  113  116 1   
   116  113  120 1   
   117  114  115 2   
   118  114  126 1   
   119  116  117 1   
   120  116  118 1   
   121  116  121 1   
   122  117  123 1   
   123  117  124 1   
   124  117  125 1   
   125  118  122 1   
   126  126  127 1   
   127  126  133 1   
   128  127  128 1   
   129  127  130 1   
   130  127  134 1   
   131  128  129 2   
   132  128  140 1   
   133  130  131 1   
   134  130  132 1   
   135  130  135 1   
   136  131  137 1   
   137  131  138 1   
   138  131  139 1   
   139  132  136 1   
   140  140  141 1   
   141  140  149 1   
   142  141  142 1   
   143  141  144 1   
   144  141  150 1   
   145  142  143 2   
   146  142  162 1   
   147  144  145 1   
   148  144  151 1   
   149  144  152 1   
   150  145  146 1   
   151  145  153 1   
   152  145  154 1   
   153  146  147 1   
   154  146  155 1   
   155  146  156 1   
   156  147  148 1   
   157  147  157 1   
   158  147  158 1   
   159  148  159 1   
   160  148  160 1   
   161  148  161 1   
   162  162  163 1   
   163  162  171 1   
   164  163  164 1   
   165  163  166 1   
   166  163  172 1   
   167  164  165 2   
   168  164  177 1   
   169  166  167 1   
   170  166  173 1   
   171  166  174 1   
   172  167  168 1   
   173  167  175 1   
   174  167  176 1   
   175  168  169 1   
   176  168  170 1   
   177  177  178 1   
   178  177  182 1   
   179  178  179 1   
   180  178  180 1   
   181  178  181 1   
   182  184  185 1   
   183  184  186 1   
   184  187  188 1   
   185  187  189 1   
@<TRIPOS>SUBSTRUCTURE
     1 MOL         1 TEMP              0 ****  ****    0 ROOT
