@<TRIPOS>MOLECULE
MOL
  189   185     1     0     0
SMALL
resp


@<TRIPOS>ATOM
      1 C1         -0.0200    2.4810   -5.7560 c3        1 MOL     -0.321496
      2 C2          0.4960    2.4080   -4.3680 c         1 MOL      0.725397
      3 O1         -0.2970    2.6920   -3.4340 o         1 MOL     -0.608832
      4 H1         -1.1000    2.3340   -5.7500 hc        1 MOL      0.084682
      5 H2          0.2110    3.4590   -6.1800 hc        1 MOL      0.084682
      6 H3          0.4480    1.7040   -6.3600 hc        1 MOL      0.084682
      7 N1          1.7440    2.0730   -4.0740 n         1 MOL     -0.625038
      8 C3          2.1630    1.7160   -2.7100 c3        1 MOL      0.163493
      9 C4          2.7020    3.0050   -1.9770 c         1 MOL      0.537793
     10 O2          3.5720    3.7060   -2.4150 o         1 MOL     -0.574496
     11 C5          3.2830    0.6100   -2.8730 c3        1 MOL     -0.266135
     12 C6          3.9340    0.2240   -1.5310 c         1 MOL      0.821146
     13 O3          3.4340    0.5610   -0.4170 o         1 MOL     -0.699178
     14 O4          4.9950   -0.4250   -1.6550 o         1 MOL     -0.699178
     15 H4          2.2980    1.7450   -4.8560 hn        1 MOL      0.332416
     16 H5          1.3550    1.2660   -2.1290 h1        1 MOL      0.068377
     17 H6          4.0760    1.0430   -3.4750 hc        1 MOL      0.060459
     18 H7          2.8360   -0.2510   -3.3720 hc        1 MOL      0.060459
     19 N2          1.9720    3.4350   -0.9310 n         1 MOL     -0.111555
     20 C7          2.0640    4.7580   -0.2640 c3        1 MOL      0.063455
     21 C8          3.0530    4.6680    0.9020 c         1 MOL      0.479273
     22 O5          3.8660    5.6110    0.9330 o         1 MOL     -0.569818
     23 C9          0.7160    5.1890    0.1500 c3        1 MOL     -0.039037
     24 C10         0.5910    6.6650    0.5700 c3        1 MOL     -0.291128
     25 C11         1.1500    7.7620   -0.3580 c3        1 MOL      0.014958
     26 C12         0.2620    7.7690   -1.5800 c3        1 MOL      0.083502
     27 N3          0.5940    8.9550   -2.4260 n4        1 MOL     -0.376949
     28 H8          1.3540    2.7310   -0.5540 hn        1 MOL     -0.150659
     29 H9          2.4650    5.4710   -0.9880 h1        1 MOL      0.048154
     30 H10         0.4530    4.5670    1.0000 hc        1 MOL      0.085159
     31 H11         0.0640    4.9820   -0.7040 hc        1 MOL      0.085159
     32 H12         1.2060    6.8200    1.4530 hc        1 MOL      0.087267
     33 H13        -0.4250    6.9320    0.8650 hc        1 MOL      0.087267
     34 H14         2.1830    7.6470   -0.6920 hc        1 MOL      0.040377
     35 H15         1.0790    8.7400    0.1220 hc        1 MOL      0.040377
     36 H16        -0.8110    7.8360   -1.4370 hx        1 MOL      0.082338
     37 H17         0.3800    6.7760   -2.0290 hx        1 MOL      0.082338
     38 H18         0.3960    9.8250   -1.9600 hn        1 MOL      0.321509
     39 H19         1.5870    8.9970   -2.6110 hn        1 MOL      0.321509
     40 H20         0.2090    8.9600   -3.3600 hn        1 MOL      0.321509
     41 N4          3.0500    3.5910    1.6890 n         1 MOL     -0.369788
     42 C13         4.0570    3.4450    2.7550 c3        1 MOL      0.074567
     43 C14         5.2720    2.5760    2.2450 c         1 MOL      0.404781
     44 O6          6.2840    2.4420    3.0010 o         1 MOL     -0.564216
     45 C15         3.4280    2.9090    4.0720 c3        1 MOL     -0.231716
     46 C16         2.5950    1.6280    4.0290 c         1 MOL      0.800638
     47 O7          1.9730    1.3650    5.1280 o         1 MOL     -0.723099
     48 O8          2.5480    0.9870    2.9850 o         1 MOL     -0.723099
     49 H21         2.3500    2.8670    1.5530 hn        1 MOL      0.269480
     50 H22         4.6200    4.3460    2.9870 h1        1 MOL      0.089908
     51 H23         2.8560    3.7180    4.5040 hc        1 MOL      0.055893
     52 H24         4.1930    2.7580    4.8290 hc        1 MOL      0.055893
     53 N5          5.2670    2.0810    1.0130 n         1 MOL     -0.076446
     54 C17         6.4820    1.8000    0.3240 c3        1 MOL     -0.260858
     55 C18         7.0570    0.3330    0.5810 c         1 MOL      0.632266
     56 O9          8.1860    0.1060    0.1200 o         1 MOL     -0.592983
     57 H25         4.3690    2.0390    0.5710 hn        1 MOL      0.142493
     58 H26         7.3270    2.4360    0.6260 h1        1 MOL      0.115850
     59 H27         6.3060    1.9940   -0.7320 h1        1 MOL      0.115850
     60 N6          6.3170   -0.5270    1.3030 n         1 MOL     -0.373994
     61 C19         6.8060   -1.8360    1.8270 c3        1 MOL     -0.019976
     62 C20         6.8340   -2.9270    0.6640 c         1 MOL      0.364500
     63 O10         7.1200   -4.1260    0.8010 o         1 MOL     -0.566463
     64 C21         5.8780   -2.2450    2.9140 c3        1 MOL     -0.020860
     65 C22         4.4200   -2.2300    2.5320 c         1 MOL      0.604301
     66 O11         4.0170   -2.1430    1.3280 o         1 MOL     -0.704117
     67 O12         3.4520   -2.1120    3.4090 o         1 MOL     -0.704117
     68 H28         5.3160   -0.4300    1.4380 hn        1 MOL      0.202778
     69 H29         7.7590   -1.7800    2.3410 h1        1 MOL      0.110200
     70 H30         6.0230   -1.6420    3.8110 hc        1 MOL      0.037154
     71 H31         6.2500   -3.2110    3.2450 hc        1 MOL      0.037154
     72 N7          6.3980   -2.6410   -0.5210 n         1 MOL     -0.091921
     73 C23         6.2920   -3.5560   -1.6780 c3        1 MOL     -0.268093
     74 C24         4.9360   -4.3300   -1.7680 c         1 MOL      0.578675
     75 O13         4.8330   -5.2920   -2.5240 o         1 MOL     -0.598448
     76 H32         6.0110   -1.7040   -0.6420 hn        1 MOL      0.218352
     77 H33         7.1240   -4.2610   -1.7300 h1        1 MOL      0.127105
     78 H34         6.2610   -2.9790   -2.5980 h1        1 MOL      0.127105
     79 N8          3.8900   -3.8810   -1.1030 n         1 MOL     -0.283744
     80 C25         2.5860   -4.5240   -1.2300 c3        1 MOL     -0.018695
     81 C26         1.5000   -3.4670   -1.2860 c         1 MOL      0.834167
     82 O14         1.7560   -2.2950   -0.9640 o         1 MOL     -0.785535
     83 C27         2.3460   -5.5850   -0.1210 c3        1 MOL      0.295814
     84 C28         3.0220   -7.0050   -0.2210 c3        1 MOL     -0.464497
     85 O15         2.3230   -4.9770    1.1410 oh        1 MOL     -0.588931
     86 H35         3.9740   -3.0670   -0.5170 hn        1 MOL      0.238763
     87 H36         2.3680   -4.9670   -2.2100 h1        1 MOL      0.039364
     88 H37         1.2760   -5.7140   -0.2890 h1        1 MOL     -0.015471
     89 H38         2.9920   -5.3580    1.7130 ho        1 MOL      0.423330
     90 H39         2.9270   -7.3920   -1.2360 hc        1 MOL      0.138302
     91 H40         4.0820   -6.9050   -0.0230 hc        1 MOL      0.138302
     92 H41         2.5120   -7.6640    0.4900 hc        1 MOL      0.138302
     93 N9          0.3200   -3.8510   -1.7690 n         1 MOL     -0.630092
     94 C29        -0.8150   -2.9660   -1.9360 c3        1 MOL     -0.008274
     95 C30        -2.0290   -3.4190   -1.1300 c         1 MOL      0.594428
     96 O16        -2.5920   -4.4560   -1.3830 o         1 MOL     -0.574381
     97 C31        -1.1350   -2.7840   -3.4780 c3        1 MOL      0.138752
     98 C32         0.0280   -2.3120   -4.4470 c3        1 MOL      0.192232
     99 C33        -2.0770   -1.5810   -3.6480 c3        1 MOL     -0.403850
    100 C34        -0.0320   -2.6080   -5.9700 c3        1 MOL     -0.314247
    101 H42         0.1170   -4.8330   -1.9290 hn        1 MOL      0.307926
    102 H43        -0.5060   -1.9880   -1.5530 h1        1 MOL      0.121791
    103 H44        -1.6320   -3.6610   -3.8880 hc        1 MOL      0.008340
    104 H45         0.9210   -2.8840   -4.1670 hc        1 MOL     -0.009542
    105 H46         0.3210   -1.2750   -4.2830 hc        1 MOL     -0.009542
    106 H47        -1.5390   -0.7370   -3.2170 hc        1 MOL      0.069402
    107 H48        -2.1920   -1.2180   -4.6720 hc        1 MOL      0.069402
    108 H49        -3.0740   -1.7820   -3.2640 hc        1 MOL      0.069402
    109 H50         0.8290   -2.1450   -6.4390 hc        1 MOL      0.070043
    110 H51        -0.0640   -3.6620   -6.2450 hc        1 MOL      0.070043
    111 H52        -0.9600   -2.2740   -6.4230 hc        1 MOL      0.070043
    112 N10        -2.4290   -2.5760   -0.2010 n         1 MOL     -0.168761
    113 C35        -3.7540   -2.6580    0.4420 c3        1 MOL     -0.148391
    114 C36        -4.9300   -2.1810   -0.3680 c         1 MOL      0.329496
    115 O17        -4.8550   -1.2820   -1.1940 o         1 MOL     -0.256314
    116 C37        -3.7840   -1.9880    1.8240 c3        1 MOL      0.341352
    117 C38        -2.6850   -2.4540    2.8320 c3        1 MOL     -0.902485
    118 O18        -3.4610   -0.6380    1.4990 oh        1 MOL     -0.418089
    119 H53        -1.9500   -1.6890   -0.1020 hn        1 MOL      0.203758
    120 H54        -3.9420   -3.7320    0.5530 h1        1 MOL      0.076748
    121 H55        -4.7920   -2.0180    2.2490 h1        1 MOL      0.025461
    122 H56        -2.6710   -0.7490    0.9660 ho        1 MOL      0.160225
    123 H57        -1.7030   -2.0010    2.7080 hc        1 MOL      0.248220
    124 H58        -2.9130   -2.0310    3.8160 hc        1 MOL      0.248220
    125 H59        -2.4840   -3.5320    2.8660 hc        1 MOL      0.248220
    126 N11        -6.1450   -2.6580   -0.0620 n         1 MOL     -0.186707
    127 C39        -7.4630   -2.0490   -0.4170 c3        1 MOL     -0.508487
    128 C40        -7.5300   -0.5450   -0.2150 c         1 MOL      0.631709
    129 O19        -7.9000    0.1560   -1.1270 o         1 MOL     -0.475328
    130 C41        -8.5290   -2.6540    0.4940 c3        1 MOL      0.453019
    131 C42        -8.8310   -4.0390   -0.1000 c3        1 MOL     -0.529029
    132 O20        -8.2670   -2.5750    1.8150 oh        1 MOL     -0.698206
    133 H60        -6.1220   -3.5100    0.4670 hn        1 MOL      0.230267
    134 H61        -7.6070   -2.2940   -1.4630 h1        1 MOL      0.232326
    135 H62        -9.4060   -2.0070    0.4350 h1        1 MOL      0.012308
    136 H63        -8.9750   -2.9400    2.3590 ho        1 MOL      0.447699
    137 H64        -9.6550   -4.5150    0.4200 hc        1 MOL      0.147885
    138 H65        -8.8340   -4.0020   -1.1910 hc        1 MOL      0.147885
    139 H66        -7.9560   -4.6360    0.1690 hc        1 MOL      0.147885
    140 N12        -7.0140   -0.0300    0.9550 n         1 MOL     -0.401457
    141 C43        -6.8110    1.4010    1.1960 c3        1 MOL     -0.078093
    142 C44        -6.1080    2.1310    0.0820 c         1 MOL      0.292054
    143 O21        -6.5560    3.1250   -0.5120 o         1 MOL     -0.482002
    144 C45        -6.0070    1.6700    2.4360 c3        1 MOL     -0.041888
    145 C46        -6.6260    1.0590    3.7130 c3        1 MOL     -0.000947
    146 C47        -5.6810    1.1700    4.9170 c3        1 MOL     -0.015760
    147 C48        -6.3140    0.4390    6.1140 c3        1 MOL      0.168201
    148 N13        -5.4770    0.4280    7.2540 n4        1 MOL     -0.362145
    149 H67        -6.5830   -0.7040    1.5690 hn        1 MOL      0.302337
    150 H68        -7.8090    1.7890    1.4120 h1        1 MOL      0.102371
    151 H69        -6.0600    2.7410    2.6270 hc        1 MOL      0.042982
    152 H70        -4.9540    1.4960    2.2420 hc        1 MOL      0.042982
    153 H71        -6.9480    0.0300    3.5390 hc        1 MOL      0.022806
    154 H72        -7.5470    1.6230    3.8720 hc        1 MOL      0.022806
    155 H73        -5.4190    2.2070    5.0900 hc        1 MOL      0.018008
    156 H74        -4.8180    0.5200    4.7660 hc        1 MOL      0.018008
    157 H75        -6.5790   -0.5850    5.8520 hx        1 MOL      0.029591
    158 H76        -7.2780    0.9000    6.3210 hx        1 MOL      0.029591
    159 H77        -5.4450    1.3000    7.7580 hn        1 MOL      0.320649
    160 H78        -5.8070   -0.2640    7.9110 hn        1 MOL      0.320649
    161 H79        -4.5200    0.3050    6.9370 hn        1 MOL      0.320649
    162 N14        -4.9030    1.6500   -0.3070 n         1 MOL     -0.056968
    163 C49        -4.0200    2.0840   -1.3960 c3        1 MOL     -0.167520
    164 C50        -4.6070    1.9180   -2.8480 c         1 MOL      0.503657
    165 O22        -4.3540    2.7100   -3.7270 o         1 MOL     -0.568688
    166 C51        -2.7110    1.2410   -1.3320 c3        1 MOL     -0.010055
    167 C52        -1.6770    1.8190   -0.3330 c3        1 MOL      0.163120
    168 C53        -0.5660    0.8950    0.1740 c         1 MOL      0.555900
    169 O23        -0.8140   -0.3380    0.2720 o         1 MOL     -0.576944
    170 O24         0.5840    1.3550    0.3660 o         1 MOL     -0.576944
    171 H80        -4.5960    0.7460    0.0110 hn        1 MOL      0.257472
    172 H81        -3.7820    3.1390   -1.2740 h1        1 MOL      0.091147
    173 H82        -2.2560    1.2500   -2.3260 hc        1 MOL      0.051967
    174 H83        -3.0270    0.2550   -0.9850 hc        1 MOL      0.051967
    175 H84        -2.2380    2.2000    0.5190 hc        1 MOL     -0.079241
    176 H85        -1.2780    2.7690   -0.6970 hc        1 MOL     -0.079241
    177 N15        -5.4380    0.9220   -3.1400 n         1 MOL     -0.106173
    178 C54        -6.2270    0.9000   -4.4380 c3        1 MOL     -0.381433
    179 H86        -7.1590    0.3560   -4.2870 h1        1 MOL      0.142655
    180 H87        -6.4500    1.9220   -4.7470 h1        1 MOL      0.142655
    181 H88        -5.6400    0.4060   -5.2120 h1        1 MOL      0.142655
    182 H89        -5.4850    0.2050   -2.4330 hn        1 MOL      0.101386
    183 Ca1         1.8840   -0.7840    1.2460 Ca        1 MOL      1.772961
    184 O25         0.5000   -3.0940    1.6120 oh        1 MOL     -0.931793
    185 H90         1.1930   -3.6370    1.2540 ho        1 MOL      0.411660
    186 H91         0.1410   -3.6000    2.3480 ho        1 MOL      0.411660
    187 O26         0.4380   -0.5910    3.6270 oh        1 MOL     -0.931793
    188 H92         0.0930   -1.1940    4.2840 ho        1 MOL      0.411660
    189 H93         1.0020    0.0030    4.1190 ho        1 MOL      0.411660
@<TRIPOS>BOND
     1    1    2 1   
     2    1    4 1   
     3    1    5 1   
     4    1    6 1   
     5    2    3 2   
     6    2    7 1   
     7    7    8 1   
     8    7   15 1   
     9    8    9 1   
    10    8   11 1   
    11    8   16 1   
    12    9   10 2   
    13    9   19 1   
    14   11   12 1   
    15   11   17 1   
    16   11   18 1   
    17   12   13 1   
    18   12   14 1   
    19   19   20 1   
    20   19   28 1   
    21   20   21 1   
    22   20   23 1   
    23   20   29 1   
    24   21   22 2   
    25   21   41 1   
    26   23   24 1   
    27   23   30 1   
    28   23   31 1   
    29   24   25 1   
    30   24   32 1   
    31   24   33 1   
    32   25   26 1   
    33   25   34 1   
    34   25   35 1   
    35   26   27 1   
    36   26   36 1   
    37   26   37 1   
    38   27   38 1   
    39   27   39 1   
    40   27   40 1   
    41   41   42 1   
    42   41   49 1   
    43   42   43 1   
    44   42   45 1   
    45   42   50 1   
    46   43   44 2   
    47   43   53 1   
    48   45   46 1   
    49   45   51 1   
    50   45   52 1   
    51   46   47 1   
    52   46   48 1   
    53   53   54 1   
    54   53   57 1   
    55   54   55 1   
    56   54   58 1   
    57   54   59 1   
    58   55   56 2   
    59   55   60 1   
    60   60   61 1   
    61   60   68 1   
    62   61   62 1   
    63   61   64 1   
    64   61   69 1   
    65   62   63 2   
    66   62   72 1   
    67   64   65 1   
    68   64   70 1   
    69   64   71 1   
    70   65   66 1   
    71   65   67 1   
    72   72   73 1   
    73   72   76 1   
    74   73   74 1   
    75   73   77 1   
    76   73   78 1   
    77   74   75 2   
    78   74   79 1   
    79   79   80 1   
    80   79   86 1   
    81   80   81 1   
    82   80   83 1   
    83   80   87 1   
    84   81   82 2   
    85   81   93 1   
    86   83   84 1   
    87   83   85 1   
    88   83   88 1   
    89   84   90 1   
    90   84   91 1   
    91   84   92 1   
    92   85   89 1   
    93   93   94 1   
    94   93  101 1   
    95   94   95 1   
    96   94   97 1   
    97   94  102 1   
    98   95   96 2   
    99   95  112 1   
   100   97   98 1   
   101   97   99 1   
   102   97  103 1   
   103   98  100 1   
   104   98  104 1   
   105   98  105 1   
   106   99  106 1   
   107   99  107 1   
   108   99  108 1   
   109  100  109 1   
   110  100  110 1   
   111  100  111 1   
   112  112  113 1   
   113  112  119 1   
   114  113  114 1   
   115  113  116 1   
   116  113  120 1   
   117  114  115 2   
   118  114  126 1   
   119  116  117 1   
   120  116  118 1   
   121  116  121 1   
   122  117  123 1   
   123  117  124 1   
   124  117  125 1   
   125  118  122 1   
   126  126  127 1   
   127  126  133 1   
   128  127  128 1   
   129  127  130 1   
   130  127  134 1   
   131  128  129 2   
   132  128  140 1   
   133  130  131 1   
   134  130  132 1   
   135  130  135 1   
   136  131  137 1   
   137  131  138 1   
   138  131  139 1   
   139  132  136 1   
   140  140  141 1   
   141  140  149 1   
   142  141  142 1   
   143  141  144 1   
   144  141  150 1   
   145  142  143 2   
   146  142  162 1   
   147  144  145 1   
   148  144  151 1   
   149  144  152 1   
   150  145  146 1   
   151  145  153 1   
   152  145  154 1   
   153  146  147 1   
   154  146  155 1   
   155  146  156 1   
   156  147  148 1   
   157  147  157 1   
   158  147  158 1   
   159  148  159 1   
   160  148  160 1   
   161  148  161 1   
   162  162  163 1   
   163  162  171 1   
   164  163  164 1   
   165  163  166 1   
   166  163  172 1   
   167  164  165 2   
   168  164  177 1   
   169  166  167 1   
   170  166  173 1   
   171  166  174 1   
   172  167  168 1   
   173  167  175 1   
   174  167  176 1   
   175  168  169 1   
   176  168  170 1   
   177  177  178 1   
   178  177  182 1   
   179  178  179 1   
   180  178  180 1   
   181  178  181 1   
   182  184  185 1   
   183  184  186 1   
   184  187  188 1   
   185  187  189 1   
@<TRIPOS>SUBSTRUCTURE
     1 MOL         1 TEMP              0 ****  ****    0 ROOT
