@<TRIPOS>MOLECULE
MOL
  175   173     1     0     0
SMALL
resp


@<TRIPOS>ATOM
      1 C1          0.8040    4.1620    5.1140 c3        1 MOL     -0.425230
      2 C2         -0.0220    4.0330    3.7470 c         1 MOL      0.764708
      3 O1          0.5550    4.2390    2.7020 o         1 MOL     -0.540642
      4 H1          1.7630    3.6550    5.0080 hc        1 MOL      0.098759
      5 H2          0.9740    5.2150    5.3400 hc        1 MOL      0.098759
      6 H3          0.2390    3.7030    5.9250 hc        1 MOL      0.098759
      7 N1         -1.3190    3.8570    3.8330 n         1 MOL     -0.737334
      8 C3         -2.1720    3.6100    2.6620 c3        1 MOL      0.211088
      9 C4         -2.3800    4.7780    1.7380 c         1 MOL      0.633194
     10 O2         -2.6870    5.8960    2.2050 o         1 MOL     -0.609167
     11 C5         -3.5280    3.0230    3.1130 c3        1 MOL     -0.325331
     12 C6         -4.2230    2.4080    1.9280 c         1 MOL      0.746961
     13 O3         -5.4520    2.2080    1.9660 o         1 MOL     -0.665730
     14 O4         -3.5680    2.0140    0.8800 o         1 MOL     -0.665730
     15 H4         -1.7210    4.0670    4.7370 hn        1 MOL      0.362667
     16 H5         -1.7150    2.7930    2.0920 h1        1 MOL      0.060060
     17 H6         -4.2030    3.7630    3.5370 hc        1 MOL      0.072526
     18 H7         -3.3750    2.3410    3.9500 hc        1 MOL      0.072526
     19 N2         -2.2930    4.6050    0.4190 n         1 MOL     -0.555498
     20 C7         -2.6530    5.6010   -0.7090 c3        1 MOL      0.461873
     21 C8         -3.6660    5.0550   -1.7300 c         1 MOL      0.299675
     22 O5         -4.0980    5.7760   -2.6270 o         1 MOL     -0.546703
     23 C9         -1.4160    6.2370   -1.3620 c3        1 MOL     -0.298960
     24 H8         -2.1280    3.6360    0.1780 hn        1 MOL      0.256619
     25 H9         -3.1180    6.4420   -0.2000 h1        1 MOL     -0.020682
     26 H10        -0.7940    6.5750   -0.5340 hc        1 MOL      0.074161
     27 H11        -0.8030    5.4620   -1.8370 hc        1 MOL      0.074161
     28 H12        -1.7390    7.0140   -2.0620 hc        1 MOL      0.074161
     29 N3         -4.1640    3.8120   -1.6810 n         1 MOL     -0.146693
     30 C10        -4.9630    3.1560   -2.6800 c3        1 MOL      0.189159
     31 C11        -6.1420    2.3790   -2.1080 c         1 MOL      0.196950
     32 O6         -7.0910    2.0320   -2.8470 o         1 MOL     -0.526190
     33 C12        -4.1970    2.2460   -3.6620 c3        1 MOL     -0.287070
     34 C13        -3.2660    1.1880   -3.0240 c         1 MOL      0.725017
     35 O7         -2.1960    0.9530   -3.6110 o         1 MOL     -0.671595
     36 O8         -3.6370    0.6010   -1.9920 o         1 MOL     -0.671595
     37 H13        -4.0740    3.2590   -0.8350 hn        1 MOL      0.062678
     38 H14        -5.4130    3.9460   -3.2810 h1        1 MOL      0.056098
     39 H15        -3.6430    2.8840   -4.3480 hc        1 MOL      0.064645
     40 H16        -4.9890    1.6610   -4.1340 hc        1 MOL      0.064645
     41 N4         -6.0980    1.9570   -0.9060 n         1 MOL      0.008832
     42 C14        -7.1650    1.1870   -0.3480 c3        1 MOL     -0.035682
     43 C15        -7.2820   -0.2690   -0.9870 c         1 MOL      0.324258
     44 O9         -8.3670   -0.7910   -1.1220 o         1 MOL     -0.559780
     45 H17        -5.2770    2.0570   -0.3320 hn        1 MOL      0.046267
     46 H18        -8.1640    1.6160   -0.3920 h1        1 MOL      0.071023
     47 H19        -6.9670    1.0470    0.7150 h1        1 MOL      0.071023
     48 N5         -6.2700   -0.8940   -1.6290 n         1 MOL      0.013151
     49 C16        -6.2970   -2.2300   -2.1930 c3        1 MOL      0.005196
     50 C17        -6.6580   -3.3540   -1.1580 c         1 MOL      0.458065
     51 O10        -7.3660   -4.3270   -1.5130 o         1 MOL     -0.541789
     52 C18        -5.0300   -2.4590   -3.0220 c3        1 MOL     -0.310289
     53 C19        -3.7590   -2.3470   -2.2020 c         1 MOL      0.663814
     54 N6         -2.6070   -2.6310   -2.7330 n         1 MOL     -0.664095
     55 O11        -3.7550   -2.0510   -1.0330 o         1 MOL     -0.553969
     56 H20        -5.3780   -0.3980   -1.6020 hn        1 MOL      0.088789
     57 H21        -7.1420   -2.2480   -2.8900 h1        1 MOL      0.068184
     58 H22        -4.9790   -1.7600   -3.8580 hc        1 MOL      0.100822
     59 H23        -5.1080   -3.4680   -3.4050 hc        1 MOL      0.100822
     60 H24        -2.5320   -2.7960   -3.7200 hn        1 MOL      0.327155
     61 H25        -1.7170   -2.5290   -2.2780 hn        1 MOL      0.327155
     62 N7         -6.2010   -3.1030    0.0920 n         1 MOL     -0.160130
     63 C20        -6.2620   -4.0580    1.1300 c3        1 MOL     -0.169628
     64 C21        -4.9480   -4.5490    1.6600 c         1 MOL      0.664143
     65 O12        -4.9280   -5.3920    2.5010 o         1 MOL     -0.612520
     66 H26        -5.8750   -2.1640    0.2580 hn        1 MOL      0.164077
     67 H27        -6.8550   -4.9490    0.9140 h1        1 MOL      0.081717
     68 H28        -6.7660   -3.5210    1.9320 h1        1 MOL      0.081717
     69 N8         -3.8060   -3.9110    1.2830 n         1 MOL     -0.405947
     70 C22        -2.3930   -4.4280    1.6220 c3        1 MOL     -0.057268
     71 C23        -1.3010   -3.2950    1.7310 c         1 MOL      0.518748
     72 O13        -1.4340   -2.3130    1.0560 o         1 MOL     -0.416749
     73 C24        -1.7980   -5.3610    0.5240 c3        1 MOL      0.532535
     74 C25        -2.3000   -6.7790    0.5460 c3        1 MOL     -0.447480
     75 O14        -1.9670   -4.9340   -0.7960 oh        1 MOL     -0.588880
     76 H29        -3.8520   -3.3160    0.4620 hn        1 MOL      0.181566
     77 H30        -2.4010   -4.9680    2.5640 h1        1 MOL      0.079446
     78 H31        -0.7330   -5.4530    0.6820 h1        1 MOL     -0.034948
     79 H32        -1.7230   -4.0060   -0.7970 ho        1 MOL      0.297664
     80 H33        -3.3890   -6.7070    0.5250 hc        1 MOL      0.105148
     81 H34        -1.9860   -7.3000   -0.3560 hc        1 MOL      0.105148
     82 H35        -1.8880   -7.2800    1.4270 hc        1 MOL      0.105148
     83 N9         -0.2010   -3.4830    2.4730 n         1 MOL     -0.609463
     84 C26         0.9900   -2.6290    2.3200 c3        1 MOL      0.040258
     85 C27         1.6690   -3.0130    0.9730 c         1 MOL      0.481389
     86 O15         1.9920   -4.1770    0.7310 o         1 MOL     -0.563125
     87 C28         1.9130   -2.5790    3.6010 c3        1 MOL      0.127131
     88 C29         1.2300   -1.8820    4.7510 c3        1 MOL      0.205630
     89 C30         3.2740   -2.0480    3.2600 c3        1 MOL     -0.211357
     90 C31         2.0630   -1.8530    6.0260 c3        1 MOL     -0.235041
     91 H36        -0.0010   -4.3770    2.8990 hn        1 MOL      0.298125
     92 H37         0.6330   -1.6050    2.2480 h1        1 MOL      0.052602
     93 H38         2.0580   -3.6180    3.8920 hc        1 MOL     -0.015521
     94 H39         0.2560   -2.3120    5.0100 hc        1 MOL     -0.044655
     95 H40         1.0150   -0.8730    4.4050 hc        1 MOL     -0.044655
     96 H41         3.7480   -2.6890    2.5120 hc        1 MOL      0.039703
     97 H42         3.2120   -1.0940    2.7390 hc        1 MOL      0.039703
     98 H43         3.8490   -1.9760    4.1910 hc        1 MOL      0.039703
     99 H44         1.4890   -1.3560    6.8180 hc        1 MOL      0.046122
    100 H45         2.3010   -2.8870    6.2570 hc        1 MOL      0.046122
    101 H46         2.9820   -1.2860    5.8780 hc        1 MOL      0.046122
    102 N10         1.8800   -1.9950    0.1030 n         1 MOL     -0.172029
    103 C32         2.6480   -2.0400   -1.0730 c3        1 MOL      0.088219
    104 C33         4.0750   -1.4730   -0.8120 c         1 MOL      0.330853
    105 O16         4.3390   -0.8770    0.2200 o         1 MOL     -0.201353
    106 C34         1.8740   -1.2460   -2.1190 c3        1 MOL     -0.314806
    107 C35         0.4280   -1.6120   -2.3410 c         1 MOL      0.741405
    108 O17        -0.4330   -1.2150   -1.5210 o         1 MOL     -0.656049
    109 O18         0.1050   -2.0990   -3.4000 o         1 MOL     -0.656049
    110 H47         1.5180   -1.1220    0.4710 hn        1 MOL      0.101345
    111 H48         2.7630   -3.0780   -1.3860 h1        1 MOL      0.055773
    112 H49         2.4270   -1.2520   -3.0530 hc        1 MOL      0.084019
    113 H50         1.9430   -0.2120   -1.7960 hc        1 MOL      0.084019
    114 N11         5.1240   -1.7560   -1.6320 n         1 MOL     -0.568320
    115 C36         6.5080   -1.4440   -1.3000 c3        1 MOL      0.260674
    116 C37         6.8050    0.0550   -1.3580 c         1 MOL      0.328466
    117 O19         7.3560    0.6320   -0.4360 o         1 MOL     -0.486016
    118 C38         7.5080   -2.3260   -2.1210 c3        1 MOL     -0.165932
    119 C39         8.9480   -1.9290   -1.8710 ca        1 MOL      0.193613
    120 C40         9.6830   -1.1750   -2.7040 ca        1 MOL     -0.283543
    121 C41         9.5450   -2.4330   -0.6660 ca        1 MOL     -0.283543
    122 C42        10.9660   -0.7840   -2.2620 ca        1 MOL      0.047454
    123 C43        10.8400   -2.1220   -0.3290 ca        1 MOL      0.047454
    124 C44        11.6120   -1.2860   -1.1180 ca        1 MOL     -0.265880
    125 H51         4.9380   -2.2980   -2.4640 hn        1 MOL      0.335026
    126 H52         6.6550   -1.7280   -0.2540 h1        1 MOL      0.063989
    127 H53         7.1520   -2.1040   -3.1230 hc        1 MOL      0.047968
    128 H54         7.2460   -3.3720   -1.9710 hc        1 MOL      0.047968
    129 H55         9.3100   -0.8540   -3.6690 ha        1 MOL      0.138741
    130 H56         8.9290   -2.9910    0.0130 ha        1 MOL      0.138741
    131 H57        11.5080   -0.1030   -2.9050 ha        1 MOL      0.070019
    132 H58        11.2510   -2.6130    0.5430 ha        1 MOL      0.070019
    133 H59        12.6150   -1.0270   -0.8170 ha        1 MOL      0.143609
    134 N12         6.1900    0.8930   -2.2960 n         1 MOL     -0.067843
    135 C45         6.2160    2.3430   -2.1730 c3        1 MOL      0.141394
    136 C46         5.5540    2.8590   -0.7740 c         1 MOL      0.297230
    137 O20         5.8630    3.9860   -0.3890 o         1 MOL     -0.510143
    138 C47         5.5210    2.8190   -3.4480 c3        1 MOL     -0.317659
    139 C48         4.8410    1.5890   -4.0310 c3        1 MOL      0.128891
    140 C49         5.6970    0.4290   -3.5960 c3        1 MOL     -0.000512
    141 H60         7.2640    2.6360   -2.2350 h1        1 MOL      0.042995
    142 H61         4.7060    3.5150   -3.2280 hc        1 MOL      0.098409
    143 H62         6.3110    3.2310   -4.0800 hc        1 MOL      0.098409
    144 H63         3.8280    1.4250   -3.6470 hc        1 MOL      0.002365
    145 H64         4.7410    1.6200   -5.1170 hc        1 MOL      0.002365
    146 H65         4.9980   -0.4010   -3.5180 h1        1 MOL     -0.005631
    147 H66         6.4830    0.2800   -4.3440 h1        1 MOL     -0.005631
    148 N13         4.7440    2.0940   -0.0280 n         1 MOL     -0.032268
    149 C50         4.1570    2.3130    1.2840 c3        1 MOL     -0.149906
    150 C51         5.0450    1.9100    2.4730 c         1 MOL      0.518263
    151 O21         5.0970    2.5070    3.5260 o         1 MOL     -0.546184
    152 C52         2.7000    1.7990    1.3910 c3        1 MOL      0.063820
    153 C53         1.7550    2.1970    0.2360 c3        1 MOL     -0.023287
    154 C54         0.3520    1.5900    0.3690 c         1 MOL      0.544578
    155 O22        -0.5790    2.1120   -0.2180 o         1 MOL     -0.675879
    156 O23         0.2320    0.5110    0.9790 o         1 MOL     -0.675879
    157 H67         4.5580    1.1490   -0.3190 hn        1 MOL      0.056714
    158 H68         4.0240    3.3840    1.4340 h1        1 MOL      0.092201
    159 H69         2.2330    2.2370    2.2700 hc        1 MOL      0.000720
    160 H70         2.7470    0.7250    1.5900 hc        1 MOL      0.000720
    161 H71         2.1370    1.7380   -0.6730 hc        1 MOL      0.039489
    162 H72         1.8170    3.2770    0.1140 hc        1 MOL      0.039489
    163 N14         5.6780    0.7440    2.2100 n         1 MOL     -0.089364
    164 C55         6.6180    0.0560    3.1230 c3        1 MOL     -0.323863
    165 H73         7.4420    0.7260    3.3670 h1        1 MOL      0.111024
    166 H74         6.0960   -0.2260    4.0370 h1        1 MOL      0.111024
    167 H75         7.0090   -0.8380    2.6370 h1        1 MOL      0.111024
    168 H76         5.4320    0.1730    1.4160 hn        1 MOL      0.044558
    169 Ca1        -2.1150   -0.0170   -0.0370 Ca        1 MOL      1.635878
    170 O24        -1.7190    0.3070    2.9180 oh        1 MOL     -0.799168
    171 H77        -1.6740    0.6360    3.8150 ho        1 MOL      0.394505
    172 H78        -0.8820    0.5550    2.5320 ho        1 MOL      0.394505
    173 O25        -4.1460   -0.9670    1.5790 oh        1 MOL     -0.799168
    174 H79        -5.1010   -0.8630    1.5870 ho        1 MOL      0.394505
    175 H80        -3.8480   -0.5730    2.3960 ho        1 MOL      0.394505
@<TRIPOS>BOND
     1    1    2 1   
     2    1    4 1   
     3    1    5 1   
     4    1    6 1   
     5    2    3 2   
     6    2    7 1   
     7    7    8 1   
     8    7   15 1   
     9    8    9 1   
    10    8   11 1   
    11    8   16 1   
    12    9   10 2   
    13    9   19 1   
    14   11   12 1   
    15   11   17 1   
    16   11   18 1   
    17   12   13 1   
    18   12   14 1   
    19   19   20 1   
    20   19   24 1   
    21   20   21 1   
    22   20   23 1   
    23   20   25 1   
    24   21   22 2   
    25   21   29 1   
    26   23   26 1   
    27   23   27 1   
    28   23   28 1   
    29   29   30 1   
    30   29   37 1   
    31   30   31 1   
    32   30   33 1   
    33   30   38 1   
    34   31   32 2   
    35   31   41 1   
    36   33   34 1   
    37   33   39 1   
    38   33   40 1   
    39   34   35 1   
    40   34   36 1   
    41   41   42 1   
    42   41   45 1   
    43   42   43 1   
    44   42   46 1   
    45   42   47 1   
    46   43   44 2   
    47   43   48 1   
    48   48   49 1   
    49   48   56 1   
    50   49   50 1   
    51   49   52 1   
    52   49   57 1   
    53   50   51 2   
    54   50   62 1   
    55   52   53 1   
    56   52   58 1   
    57   52   59 1   
    58   53   54 1   
    59   53   55 2   
    60   54   60 1   
    61   54   61 1   
    62   62   63 1   
    63   62   66 1   
    64   63   64 1   
    65   63   67 1   
    66   63   68 1   
    67   64   65 2   
    68   64   69 1   
    69   69   70 1   
    70   69   76 1   
    71   70   71 1   
    72   70   73 1   
    73   70   77 1   
    74   71   72 2   
    75   71   83 1   
    76   73   74 1   
    77   73   75 1   
    78   73   78 1   
    79   74   80 1   
    80   74   81 1   
    81   74   82 1   
    82   75   79 1   
    83   83   84 1   
    84   83   91 1   
    85   84   85 1   
    86   84   87 1   
    87   84   92 1   
    88   85   86 2   
    89   85  102 1   
    90   87   88 1   
    91   87   89 1   
    92   87   93 1   
    93   88   90 1   
    94   88   94 1   
    95   88   95 1   
    96   89   96 1   
    97   89   97 1   
    98   89   98 1   
    99   90   99 1   
   100   90  100 1   
   101   90  101 1   
   102  102  103 1   
   103  102  110 1   
   104  103  104 1   
   105  103  106 1   
   106  103  111 1   
   107  104  105 2   
   108  104  114 1   
   109  106  107 1   
   110  106  112 1   
   111  106  113 1   
   112  107  108 1   
   113  107  109 1   
   114  114  115 1   
   115  114  125 1   
   116  115  116 1   
   117  115  118 1   
   118  115  126 1   
   119  116  117 2   
   120  116  134 1   
   121  118  119 1   
   122  118  127 1   
   123  118  128 1   
   124  119  120 ar  
   125  119  121 ar  
   126  120  122 ar  
   127  120  129 1   
   128  121  123 ar  
   129  121  130 1   
   130  122  124 ar  
   131  122  131 1   
   132  123  124 ar  
   133  123  132 1   
   134  124  133 1   
   135  134  135 1   
   136  134  140 1   
   137  135  136 1   
   138  135  138 1   
   139  135  141 1   
   140  136  137 2   
   141  136  148 1   
   142  138  139 1   
   143  138  142 1   
   144  138  143 1   
   145  139  140 1   
   146  139  144 1   
   147  139  145 1   
   148  140  146 1   
   149  140  147 1   
   150  148  149 1   
   151  148  157 1   
   152  149  150 1   
   153  149  152 1   
   154  149  158 1   
   155  150  151 2   
   156  150  163 1   
   157  152  153 1   
   158  152  159 1   
   159  152  160 1   
   160  153  154 1   
   161  153  161 1   
   162  153  162 1   
   163  154  155 1   
   164  154  156 1   
   165  163  164 1   
   166  163  168 1   
   167  164  165 1   
   168  164  166 1   
   169  164  167 1   
   170  170  171 1   
   171  170  172 1   
   172  173  174 1   
   173  173  175 1   
@<TRIPOS>SUBSTRUCTURE
     1 MOL         1 TEMP              0 ****  ****    0 ROOT
