@<TRIPOS>MOLECULE
MOL
  179   176     1     0     0
SMALL
resp


@<TRIPOS>ATOM
      1 C1          1.0630    4.3520    3.9250 c3        1 MOL     -0.328555
      2 C2          0.4750    3.6120    2.7940 c         1 MOL      0.650824
      3 O1          1.0250    3.5450    1.6750 o         1 MOL     -0.578611
      4 H1          1.2280    5.3900    3.6330 hc        1 MOL      0.079164
      5 H2          0.3820    4.3190    4.7760 hc        1 MOL      0.079164
      6 H3          2.0150    3.8980    4.2020 hc        1 MOL      0.079164
      7 N1         -0.7460    3.1910    2.9980 n         1 MOL     -0.539055
      8 C3         -1.6600    2.7080    1.9400 c3        1 MOL     -0.146114
      9 C4         -2.4880    3.9110    1.4350 c         1 MOL      0.756698
     10 O2         -3.6570    3.9910    1.8190 o         1 MOL     -0.512264
     11 C5         -2.4490    1.5300    2.5650 c3        1 MOL      0.009631
     12 C6         -3.3130    0.7590    1.5170 c         1 MOL      0.649436
     13 O3         -4.0850   -0.1540    1.9160 o         1 MOL     -0.678627
     14 O4         -3.1820    0.9350    0.2700 o         1 MOL     -0.678627
     15 H4         -1.2180    3.4580    3.8440 hn        1 MOL      0.329768
     16 H5         -1.0100    2.3010    1.1560 h1        1 MOL      0.097309
     17 H6         -3.1310    1.9300    3.3110 hc        1 MOL      0.021516
     18 H7         -1.8170    0.8230    3.1070 hc        1 MOL      0.021516
     19 N2         -1.9200    4.7990    0.5840 n         1 MOL     -0.755096
     20 C7         -2.7420    5.8330   -0.0280 c3        1 MOL      0.072775
     21 C8         -3.8980    5.3310   -0.8840 c         1 MOL      0.374999
     22 O5         -5.0210    5.8390   -0.9860 o         1 MOL     -0.508655
     23 C9         -1.8880    6.8880   -0.8170 c3        1 MOL     -0.197795
     24 C10        -0.8310    7.4560    0.1350 c3        1 MOL      0.384566
     25 C11        -0.2280    8.6850   -0.4150 c3        1 MOL     -0.213867
     26 C12         0.6470    9.3130    0.6260 c3        1 MOL     -0.060900
     27 N3          1.8730    8.4790    1.0110 n4        1 MOL     -0.397311
     28 H8         -1.0010    4.6750    0.1900 hn        1 MOL      0.456504
     29 H9         -3.2860    6.4340    0.6980 h1        1 MOL      0.078643
     30 H10        -2.6200    7.6340   -1.1260 hc        1 MOL      0.062748
     31 H11        -1.4720    6.4610   -1.7220 hc        1 MOL      0.062748
     32 H12        -0.0080    6.7650    0.2980 hc        1 MOL     -0.072588
     33 H13        -1.2340    7.6870    1.1230 hc        1 MOL     -0.072588
     34 H14        -1.1070    9.2940   -0.6050 hc        1 MOL      0.090788
     35 H15         0.3370    8.5040   -1.3360 hc        1 MOL      0.090788
     36 H16         0.0140    9.5060    1.4970 hx        1 MOL      0.124435
     37 H17         1.0270   10.2640    0.2540 hx        1 MOL      0.124435
     38 H18         2.5190    8.3560    0.2440 hn        1 MOL      0.343645
     39 H19         2.4900    8.8890    1.7080 hn        1 MOL      0.343645
     40 H20         1.5650    7.5660    1.2930 hn        1 MOL      0.343645
     41 N4         -3.6610    4.1360   -1.5580 n         1 MOL     -0.153742
     42 C13        -4.5510    3.5420   -2.5340 c3        1 MOL      0.005094
     43 C14        -5.6970    2.7200   -1.9780 c         1 MOL      0.432777
     44 O6         -6.7900    2.7110   -2.5460 o         1 MOL     -0.532446
     45 C15        -3.7550    2.8770   -3.6480 c3        1 MOL     -0.358534
     46 C16        -2.7620    1.8940   -3.0620 c         1 MOL      0.829513
     47 O7         -1.6560    2.2850   -2.6340 o         1 MOL     -0.745150
     48 O8         -3.1380    0.7820   -2.8740 o         1 MOL     -0.745150
     49 H21        -2.7430    3.7410   -1.4180 hn        1 MOL      0.187516
     50 H22        -5.1410    4.3810   -2.8990 h1        1 MOL      0.094336
     51 H23        -3.2350    3.7140   -4.1270 hc        1 MOL      0.085583
     52 H24        -4.4690    2.4470   -4.3540 hc        1 MOL      0.085583
     53 N5         -5.5410    2.1290   -0.7760 n         1 MOL     -0.008656
     54 C17        -6.5720    1.5770    0.0690 c3        1 MOL     -0.172761
     55 C18        -6.9740    0.2150   -0.3510 c         1 MOL      0.409811
     56 O9         -8.1880   -0.0690   -0.4680 o         1 MOL     -0.524424
     57 H25        -4.6120    1.9180   -0.4370 hn        1 MOL      0.028169
     58 H26        -7.3900    2.2900    0.1630 h1        1 MOL      0.105410
     59 H27        -6.1490    1.4820    1.0660 h1        1 MOL      0.105410
     60 N6         -5.9880   -0.6970   -0.6210 n         1 MOL     -0.012919
     61 C19        -6.2940   -2.1320   -0.7750 c3        1 MOL     -0.108698
     62 C20        -6.1420   -2.9600    0.5340 c         1 MOL      0.499269
     63 O10        -6.4630   -4.1030    0.5420 o         1 MOL     -0.523566
     64 C21        -5.4940   -2.7160   -1.9360 c3        1 MOL     -0.185576
     65 C22        -4.0350   -2.8820   -1.6720 c         1 MOL      0.528237
     66 N7         -3.3410   -3.7390   -2.4090 n         1 MOL     -0.601627
     67 O11        -3.4020   -2.3140   -0.8220 o         1 MOL     -0.398580
     68 H28        -5.0660   -0.3690   -0.8500 hn        1 MOL      0.020629
     69 H29        -7.3460   -2.1820   -1.0440 h1        1 MOL      0.105192
     70 H30        -5.7080   -2.1570   -2.8460 hc        1 MOL      0.093796
     71 H31        -5.8160   -3.7460   -2.0850 hc        1 MOL      0.093796
     72 H32        -3.7400   -4.2850   -3.1590 hn        1 MOL      0.287787
     73 H33        -2.4040   -3.9130   -2.1020 hn        1 MOL      0.287787
     74 N8         -5.6440   -2.4200    1.6460 n         1 MOL     -0.350033
     75 C23        -5.4450   -3.0070    2.9480 c3        1 MOL     -0.055501
     76 C24        -3.9780   -3.3740    3.2510 c         1 MOL      0.411472
     77 O12        -3.6770   -3.7130    4.4050 o         1 MOL     -0.572033
     78 H34        -5.2600   -1.4930    1.6050 hn        1 MOL      0.259316
     79 H35        -5.9960   -3.9470    2.8710 h1        1 MOL      0.092044
     80 H36        -5.8380   -2.4020    3.7600 h1        1 MOL      0.092044
     81 N9         -3.0620   -3.2880    2.3070 n         1 MOL     -0.097513
     82 C25        -1.6170   -3.7240    2.5550 c3        1 MOL     -0.000903
     83 C26        -0.5700   -2.8950    1.7630 c         1 MOL      0.557430
     84 O13        -0.9110   -2.1300    0.8700 o         1 MOL     -0.684384
     85 C27        -1.4810   -5.2150    2.2350 c3        1 MOL     -0.352464
     86 C28        -1.5760   -5.6130    0.8140 ca        1 MOL      0.271509
     87 C29        -2.8750   -5.9800    0.2700 ca        1 MOL     -0.304026
     88 C30        -0.3880   -5.8120   -0.0140 ca        1 MOL     -0.304026
     89 C31        -3.0680   -6.5330   -1.0220 ca        1 MOL     -0.132978
     90 C32        -0.5510   -6.4840   -1.2070 ca        1 MOL     -0.132978
     91 C33        -1.8480   -6.8850   -1.6860 ca        1 MOL      0.180899
     92 O14        -1.9260   -7.6670   -2.8180 oh        1 MOL     -0.410785
     93 H37        -3.2910   -2.8140    1.4350 hn        1 MOL      0.154870
     94 H38        -1.4150   -3.5320    3.6120 h1        1 MOL      0.101317
     95 H39        -2.3580   -5.7490    2.6240 hc        1 MOL      0.125099
     96 H40        -0.6850   -5.7570    2.7550 hc        1 MOL      0.125099
     97 H41        -3.7840   -5.7590    0.8170 ha        1 MOL      0.181323
     98 H42         0.5770   -5.4460    0.3050 ha        1 MOL      0.181323
     99 H43        -4.0100   -6.8420   -1.4380 ha        1 MOL      0.132057
    100 H44         0.3130   -6.7550   -1.7810 ha        1 MOL      0.132057
    101 H45        -1.0580   -7.7860   -3.2050 ho        1 MOL      0.309231
    102 N10         0.7310   -3.0980    2.0560 n         1 MOL     -0.398944
    103 C34         1.7860   -2.2790    1.5420 c3        1 MOL      0.023909
    104 C35         2.9840   -3.1750    1.0900 c         1 MOL      0.156566
    105 O15         3.2760   -4.1920    1.7240 o         1 MOL     -0.504359
    106 C36         2.1670   -1.1340    2.5270 c3        1 MOL      0.265863
    107 C37         2.8980   -1.6950    3.7800 c3        1 MOL     -0.087949
    108 C38         0.8590   -0.3790    2.9460 c3        1 MOL     -0.027359
    109 C39         3.3090   -0.7190    4.8430 c3        1 MOL     -0.291068
    110 H46         0.9550   -3.6430    2.8770 hn        1 MOL      0.261209
    111 H47         1.4530   -1.8780    0.5850 h1        1 MOL      0.153391
    112 H48         2.8910   -0.5030    2.0150 hc        1 MOL     -0.107360
    113 H49         3.7380   -2.3410    3.5120 hc        1 MOL      0.056875
    114 H50         2.2260   -2.3750    4.3210 hc        1 MOL      0.056875
    115 H51         0.4000   -1.0900    3.6170 hc        1 MOL      0.014638
    116 H52         1.1940    0.4710    3.5390 hc        1 MOL      0.014638
    117 H53         0.3020    0.0230    2.0900 hc        1 MOL      0.014638
    118 H54         4.2090   -0.2450    4.4320 hc        1 MOL      0.075014
    119 H55         2.6050    0.0970    5.0200 hc        1 MOL      0.075014
    120 H56         3.6000   -1.2270    5.7590 hc        1 MOL      0.075014
    121 N11         3.6570   -2.7530    0.0530 n         1 MOL     -0.043582
    122 C40         4.9520   -3.3190   -0.3740 c3        1 MOL      0.179843
    123 C41         6.1200   -2.3880    0.1570 c         1 MOL      0.467861
    124 O16         5.8500   -1.2730    0.5810 o         1 MOL     -0.425051
    125 C42         4.8900   -3.5250   -1.8500 c3        1 MOL     -0.132072
    126 O17         4.7660   -2.2390   -2.6240 oh        1 MOL     -0.486440
    127 H57         3.2780   -1.9800   -0.4590 hn        1 MOL      0.106610
    128 H58         5.0390   -4.3090    0.0810 h1        1 MOL      0.033868
    129 H59         4.0510   -4.1750   -2.0930 h1        1 MOL      0.078300
    130 H60         5.8530   -3.9750   -2.0900 h1        1 MOL      0.078300
    131 H61         4.9190   -2.5520   -3.5150 ho        1 MOL      0.377357
    132 N12         7.3800   -2.8300    0.1240 n         1 MOL     -0.541266
    133 C43         8.5550   -1.9340    0.2840 c3        1 MOL      0.273630
    134 C44         8.4550   -0.6160   -0.4950 c         1 MOL      0.373648
    135 O18         8.8730    0.3850    0.0180 o         1 MOL     -0.512090
    136 C45         9.8350   -2.6560   -0.2140 c3        1 MOL     -0.333394
    137 H62         7.6020   -3.7460   -0.2460 hn        1 MOL      0.303327
    138 H63         8.6710   -1.6640    1.3370 h1        1 MOL      0.062981
    139 H64         9.5950   -3.1640   -1.1410 hc        1 MOL      0.094514
    140 H65        10.7240   -2.0690   -0.4370 hc        1 MOL      0.094514
    141 H66        10.0240   -3.4440    0.5290 hc        1 MOL      0.094514
    142 N13         7.8610   -0.5900   -1.6780 n         1 MOL     -0.203662
    143 C46         7.8220    0.5550   -2.6080 c3        1 MOL     -0.043377
    144 C47         6.7620    1.6130   -2.1940 c         1 MOL      0.497449
    145 O19         7.0800    2.7570   -2.4400 o         1 MOL     -0.508819
    146 C48         7.5460   -0.0060   -4.0110 c3        1 MOL     -0.266601
    147 H67         7.5560   -1.4760   -2.0570 hn        1 MOL      0.179062
    148 H68         8.7580    1.1190   -2.6300 h1        1 MOL      0.132100
    149 H69         7.3740    0.7810   -4.7490 hc        1 MOL      0.078338
    150 H70         8.4730   -0.4500   -4.3730 hc        1 MOL      0.078338
    151 H71         6.7900   -0.7710   -4.1260 hc        1 MOL      0.078338
    152 N14         5.7120    1.1870   -1.4830 n         1 MOL     -0.345984
    153 C49         4.8410    2.0390   -0.7200 c3        1 MOL      0.008707
    154 C50         5.3700    2.7280    0.5130 c         1 MOL      0.446128
    155 O20         5.2980    3.9600    0.5760 o         1 MOL     -0.553759
    156 C51         3.5430    1.3000   -0.2920 c3        1 MOL      0.123219
    157 C52         2.6790    1.0350   -1.5370 c3        1 MOL      0.212748
    158 C53         1.2710    0.5020   -1.1100 c         1 MOL      0.471682
    159 O21         0.4710    1.2030   -0.4240 o         1 MOL     -0.651343
    160 O22         0.9200   -0.6090   -1.5220 o         1 MOL     -0.651343
    161 H72         5.6550    0.1980   -1.3420 hn        1 MOL      0.235003
    162 H73         4.4980    2.7990   -1.4200 h1        1 MOL      0.071491
    163 H74         3.0130    1.9450    0.4020 hc        1 MOL     -0.026902
    164 H75         3.8140    0.3240    0.1150 hc        1 MOL     -0.026902
    165 H76         3.1580    0.2470   -2.1140 hc        1 MOL     -0.081275
    166 H77         2.6300    1.9270   -2.1600 hc        1 MOL     -0.081275
    167 N15         6.0970    1.9910    1.4200 n         1 MOL     -0.157324
    168 C54         6.8000    2.4220    2.5970 c3        1 MOL     -0.180723
    169 H78         6.9220    3.5050    2.5710 h1        1 MOL      0.080852
    170 H79         6.2310    2.1430    3.4830 h1        1 MOL      0.080852
    171 H80         7.7810    1.9460    2.6290 h1        1 MOL      0.080852
    172 H81         6.1720    0.9950    1.2720 hn        1 MOL      0.184208
    173 Ca1        -1.5750   -0.5350   -1.2820 Ca        1 MOL      1.743393
    174 O23        -1.2070   -1.0860   -3.9310 oh        1 MOL     -0.883457
    175 H82        -0.5660   -1.6600   -4.3380 ho        1 MOL      0.420060
    176 H83        -1.6610   -0.6680   -4.6570 ho        1 MOL      0.420060
    177 O24        -0.6780   -3.5020   -1.7800 oh        1 MOL     -0.883457
    178 H84        -0.7590   -4.3060   -1.2800 ho        1 MOL      0.420060
    179 H85         0.0430   -3.6690   -2.3860 ho        1 MOL      0.420060
@<TRIPOS>BOND
     1    1    2 1   
     2    1    4 1   
     3    1    5 1   
     4    1    6 1   
     5    2    3 2   
     6    2    7 1   
     7    7    8 1   
     8    7   15 1   
     9    8    9 1   
    10    8   11 1   
    11    8   16 1   
    12    9   10 2   
    13    9   19 1   
    14   11   12 1   
    15   11   17 1   
    16   11   18 1   
    17   12   13 1   
    18   12   14 1   
    19   19   20 1   
    20   19   28 1   
    21   20   21 1   
    22   20   23 1   
    23   20   29 1   
    24   21   22 2   
    25   21   41 1   
    26   23   24 1   
    27   23   30 1   
    28   23   31 1   
    29   24   25 1   
    30   24   32 1   
    31   24   33 1   
    32   25   26 1   
    33   25   34 1   
    34   25   35 1   
    35   26   27 1   
    36   26   36 1   
    37   26   37 1   
    38   27   38 1   
    39   27   39 1   
    40   27   40 1   
    41   41   42 1   
    42   41   49 1   
    43   42   43 1   
    44   42   45 1   
    45   42   50 1   
    46   43   44 2   
    47   43   53 1   
    48   45   46 1   
    49   45   51 1   
    50   45   52 1   
    51   46   47 1   
    52   46   48 1   
    53   53   54 1   
    54   53   57 1   
    55   54   55 1   
    56   54   58 1   
    57   54   59 1   
    58   55   56 2   
    59   55   60 1   
    60   60   61 1   
    61   60   68 1   
    62   61   62 1   
    63   61   64 1   
    64   61   69 1   
    65   62   63 2   
    66   62   74 1   
    67   64   65 1   
    68   64   70 1   
    69   64   71 1   
    70   65   66 1   
    71   65   67 2   
    72   66   72 1   
    73   66   73 1   
    74   74   75 1   
    75   74   78 1   
    76   75   76 1   
    77   75   79 1   
    78   75   80 1   
    79   76   77 2   
    80   76   81 1   
    81   81   82 1   
    82   81   93 1   
    83   82   83 1   
    84   82   85 1   
    85   82   94 1   
    86   83   84 2   
    87   83  102 1   
    88   85   86 1   
    89   85   95 1   
    90   85   96 1   
    91   86   87 ar  
    92   86   88 ar  
    93   87   89 ar  
    94   87   97 1   
    95   88   90 ar  
    96   88   98 1   
    97   89   91 ar  
    98   89   99 1   
    99   90   91 ar  
   100   90  100 1   
   101   91   92 1   
   102   92  101 1   
   103  102  103 1   
   104  102  110 1   
   105  103  104 1   
   106  103  106 1   
   107  103  111 1   
   108  104  105 2   
   109  104  121 1   
   110  106  107 1   
   111  106  108 1   
   112  106  112 1   
   113  107  109 1   
   114  107  113 1   
   115  107  114 1   
   116  108  115 1   
   117  108  116 1   
   118  108  117 1   
   119  109  118 1   
   120  109  119 1   
   121  109  120 1   
   122  121  122 1   
   123  121  127 1   
   124  122  123 1   
   125  122  125 1   
   126  122  128 1   
   127  123  124 2   
   128  123  132 1   
   129  125  126 1   
   130  125  129 1   
   131  125  130 1   
   132  126  131 1   
   133  132  133 1   
   134  132  137 1   
   135  133  134 1   
   136  133  136 1   
   137  133  138 1   
   138  134  135 2   
   139  134  142 1   
   140  136  139 1   
   141  136  140 1   
   142  136  141 1   
   143  142  143 1   
   144  142  147 1   
   145  143  144 1   
   146  143  146 1   
   147  143  148 1   
   148  144  145 2   
   149  144  152 1   
   150  146  149 1   
   151  146  150 1   
   152  146  151 1   
   153  152  153 1   
   154  152  161 1   
   155  153  154 1   
   156  153  156 1   
   157  153  162 1   
   158  154  155 2   
   159  154  167 1   
   160  156  157 1   
   161  156  163 1   
   162  156  164 1   
   163  157  158 1   
   164  157  165 1   
   165  157  166 1   
   166  158  159 1   
   167  158  160 1   
   168  167  168 1   
   169  167  172 1   
   170  168  169 1   
   171  168  170 1   
   172  168  171 1   
   173  174  175 1   
   174  174  176 1   
   175  177  178 1   
   176  177  179 1   
@<TRIPOS>SUBSTRUCTURE
     1 MOL         1 TEMP              0 ****  ****    0 ROOT
