@<TRIPOS>MOLECULE
MOL
  189   185     1     0     0
SMALL
resp


@<TRIPOS>ATOM
      1 C1         -0.3090    3.9150    4.9310 c3        1 MOL     -0.262542
      2 C2         -0.6440    3.2370    3.6080 c         1 MOL      0.733220
      3 O1          0.1080    3.1440    2.6580 o         1 MOL     -0.641715
      4 H1         -1.2310    4.1270    5.4720 hc        1 MOL      0.064091
      5 H2          0.3200    3.2560    5.5290 hc        1 MOL      0.064091
      6 H3          0.2200    4.8480    4.7380 hc        1 MOL      0.064091
      7 N1         -1.8820    2.7930    3.5170 n         1 MOL     -0.675337
      8 C3         -2.3760    2.1710    2.2270 c3        1 MOL      0.206718
      9 C4         -2.6920    3.3350    1.3040 c         1 MOL      0.578429
     10 O2         -3.5820    4.1320    1.6780 o         1 MOL     -0.609348
     11 C5         -3.5990    1.2810    2.4310 c3        1 MOL     -0.164849
     12 C6         -4.0360    0.4860    1.2180 c         1 MOL      0.932817
     13 O3         -5.0570   -0.2000    1.2830 o         1 MOL     -0.755621
     14 O4         -3.4300    0.6630    0.1540 o         1 MOL     -0.755621
     15 H4         -2.4140    2.7040    4.3740 hn        1 MOL      0.358721
     16 H5         -1.6260    1.4850    1.8290 h1        1 MOL      0.006747
     17 H6         -4.4950    1.8230    2.7490 hc        1 MOL      0.019542
     18 H7         -3.3680    0.6430    3.2940 hc        1 MOL      0.019542
     19 N2         -2.0170    3.5390    0.1610 n         1 MOL     -0.295316
     20 C7         -2.0410    4.7720   -0.6190 c3        1 MOL     -0.000363
     21 C8         -2.9920    4.6570   -1.8080 c         1 MOL      0.423330
     22 O5         -3.3770    5.6920   -2.3810 o         1 MOL     -0.569093
     23 C9         -0.6700    5.0620   -1.0590 c3        1 MOL     -0.099370
     24 C10         0.3230    5.3000    0.0280 c3        1 MOL     -0.037993
     25 C11         0.2770    6.6220    0.7520 c3        1 MOL     -0.096323
     26 C12         0.5060    6.4070    2.2970 c3        1 MOL     -0.014384
     27 N3         -0.1340    7.5680    2.9620 n4        1 MOL     -0.307397
     28 H8         -1.3120    2.8550   -0.0690 hn        1 MOL      0.305407
     29 H9         -2.4280    5.6960   -0.1730 h1        1 MOL      0.064176
     30 H10        -0.6640    5.8620   -1.7970 hc        1 MOL      0.053016
     31 H11        -0.3150    4.1870   -1.6020 hc        1 MOL      0.053016
     32 H12         1.3570    5.2850   -0.3160 hc        1 MOL      0.057696
     33 H13         0.3130    4.4180    0.6700 hc        1 MOL      0.057696
     34 H14        -0.7220    7.0590    0.6550 hc        1 MOL      0.046242
     35 H15         0.9950    7.3180    0.3230 hc        1 MOL      0.046242
     36 H16         1.5690    6.3090    2.5440 hx        1 MOL      0.120547
     37 H17        -0.0540    5.4850    2.4640 hx        1 MOL      0.120547
     38 H18        -1.0600    7.5900    2.5820 hn        1 MOL      0.301403
     39 H19        -0.1650    7.6610    3.9680 hn        1 MOL      0.301403
     40 H20         0.2960    8.4150    2.6260 hn        1 MOL      0.301403
     41 N4         -3.4140    3.4530   -2.1700 n         1 MOL     -0.128749
     42 C13        -4.4700    3.1770   -3.2360 c3        1 MOL     -0.071005
     43 C14        -5.7310    2.4350   -2.7270 c         1 MOL      0.423469
     44 O6         -6.7870    2.3340   -3.3400 o         1 MOL     -0.495755
     45 C15        -3.8190    2.4720   -4.3990 c3        1 MOL     -0.143016
     46 C16        -3.0340    1.2110   -4.1960 c         1 MOL      0.732482
     47 O7         -2.4650    0.8190   -5.2370 o         1 MOL     -0.691706
     48 O8         -2.7790    0.7630   -3.0040 o         1 MOL     -0.691706
     49 H21        -2.9200    2.6610   -1.8020 hn        1 MOL      0.087666
     50 H22        -4.8800    4.1610   -3.5060 h1        1 MOL      0.115143
     51 H23        -3.2070    3.2740   -4.8010 hc        1 MOL      0.053026
     52 H24        -4.6160    2.2810   -5.1270 hc        1 MOL      0.053026
     53 N5         -5.7000    2.1100   -1.4060 n         1 MOL     -0.171034
     54 C17        -6.9290    1.7260   -0.6430 c3        1 MOL     -0.374985
     55 C18        -7.5890    0.4520   -1.1200 c         1 MOL      0.531574
     56 O9         -8.8100    0.4000   -1.1390 o         1 MOL     -0.568783
     57 H25        -4.8090    2.2160   -0.9450 hn        1 MOL      0.137174
     58 H26        -7.6350    2.5140   -0.8950 h1        1 MOL      0.163969
     59 H27        -6.7460    1.7240    0.4270 h1        1 MOL      0.163969
     60 N6         -6.8210   -0.4710   -1.5860 n         1 MOL     -0.170975
     61 C19        -7.1210   -1.9160   -1.7910 c3        1 MOL     -0.139881
     62 C20        -7.2530   -2.7040   -0.4880 c         1 MOL      0.402067
     63 O10        -7.9200   -3.8180   -0.5300 o         1 MOL     -0.557453
     64 C21        -6.0530   -2.4900   -2.7160 c3        1 MOL     -0.084381
     65 C22        -4.5550   -2.4290   -2.3320 c         1 MOL      0.647526
     66 O11        -3.6540   -2.6800   -3.1280 o         1 MOL     -0.666363
     67 O12        -4.2730   -2.1230   -1.1630 o         1 MOL     -0.666363
     68 H28        -5.8340   -0.2480   -1.6010 hn        1 MOL      0.162068
     69 H29        -8.0610   -1.9750   -2.3510 h1        1 MOL      0.142811
     70 H30        -6.0040   -1.9260   -3.6480 hc        1 MOL      0.045818
     71 H31        -6.4010   -3.4800   -3.0090 hc        1 MOL      0.045818
     72 N7         -6.8050   -2.3120    0.6750 n         1 MOL     -0.111986
     73 C23        -6.8870   -3.0130    1.9280 c3        1 MOL     -0.210574
     74 C24        -5.6110   -3.7520    2.2990 c         1 MOL      0.591591
     75 O13        -5.6290   -4.7530    3.0150 o         1 MOL     -0.561406
     76 H32        -6.2430   -1.4700    0.7430 hn        1 MOL      0.233153
     77 H33        -7.7330   -3.7000    1.8630 h1        1 MOL      0.104267
     78 H34        -7.0180   -2.1860    2.6180 h1        1 MOL      0.104267
     79 N8         -4.4080   -3.3300    1.7370 n         1 MOL     -0.374946
     80 C25        -3.1370   -4.1000    1.7980 c3        1 MOL     -0.055689
     81 C26        -1.9900   -3.1020    1.6510 c         1 MOL      0.644137
     82 O14        -2.1360   -2.0330    0.9920 o         1 MOL     -0.722417
     83 C27        -3.0910   -5.1340    0.6200 c3        1 MOL      0.581835
     84 C28        -3.6790   -6.4660    0.9570 c3        1 MOL     -0.534222
     85 O15        -3.6290   -4.7530   -0.5520 oh        1 MOL     -0.627120
     86 H35        -4.4240   -2.3970    1.3630 hn        1 MOL      0.216948
     87 H36        -2.9810   -4.6510    2.7290 h1        1 MOL      0.072331
     88 H37        -2.0170   -5.2820    0.5390 h1        1 MOL     -0.091654
     89 H38        -4.1310   -3.9360   -0.4820 ho        1 MOL      0.432913
     90 H39        -4.7500   -6.3340    1.1040 hc        1 MOL      0.131403
     91 H40        -3.6180   -7.1090    0.0850 hc        1 MOL      0.131403
     92 H41        -3.2360   -6.8780    1.8650 hc        1 MOL      0.131403
     93 N9         -0.8110   -3.3910    2.2480 n         1 MOL     -0.649409
     94 C29         0.3840   -2.4980    2.2130 c3        1 MOL      0.071783
     95 C30         1.6110   -3.1690    1.7690 c         1 MOL      0.513478
     96 O16         1.9250   -4.2950    2.2350 o         1 MOL     -0.563710
     97 C31         0.5780   -1.8760    3.5730 c3        1 MOL      0.131306
     98 C32        -0.7270   -1.1390    4.0880 c3        1 MOL      0.285364
     99 C33         1.6580   -0.7650    3.6120 c3        1 MOL     -0.608242
    100 C34        -0.7670   -0.8590    5.5960 c3        1 MOL     -0.206472
    101 H42        -0.7670   -4.3280    2.6300 hn        1 MOL      0.324612
    102 H43         0.1050   -1.6610    1.5700 h1        1 MOL      0.147090
    103 H44         0.8660   -2.6020    4.3320 hc        1 MOL      0.016488
    104 H45        -1.5950   -1.7500    3.8420 hc        1 MOL     -0.045007
    105 H46        -0.9790   -0.2100    3.5740 hc        1 MOL     -0.045007
    106 H47         2.6210   -1.0870    3.2230 hc        1 MOL      0.147336
    107 H48         1.3280    0.0180    2.9290 hc        1 MOL      0.147336
    108 H49         1.7680   -0.2880    4.5840 hc        1 MOL      0.147336
    109 H50         0.1900   -0.6010    6.0420 hc        1 MOL      0.033201
    110 H51        -1.4310   -0.0100    5.7340 hc        1 MOL      0.033201
    111 H52        -1.1540   -1.7500    6.1010 hc        1 MOL      0.033201
    112 N10         2.3820   -2.4590    0.9560 n         1 MOL     -0.196403
    113 C35         3.6700   -2.9500    0.3210 c3        1 MOL      0.060501
    114 C36         4.9510   -2.2260    0.8840 c         1 MOL      0.494107
    115 O17         4.9060   -1.1550    1.4700 o         1 MOL     -0.405291
    116 C37         3.5250   -2.7810   -1.2300 c3        1 MOL      0.121837
    117 C38         2.1640   -3.1280   -1.8760 c3        1 MOL     -0.387697
    118 O18         3.6590   -1.3630   -1.4790 oh        1 MOL     -0.563553
    119 H53         1.9500   -1.6240    0.6120 hn        1 MOL      0.077718
    120 H54         3.7190   -3.9970    0.6140 h1        1 MOL      0.047592
    121 H55         4.2860   -3.3830   -1.7250 h1        1 MOL      0.045257
    122 H56         2.9390   -1.0360   -2.0240 ho        1 MOL      0.397520
    123 H57         1.9260   -4.1660   -1.6750 hc        1 MOL      0.132628
    124 H58         1.3950   -2.3460   -1.8060 hc        1 MOL      0.132628
    125 H59         2.2210   -3.1930   -2.9630 hc        1 MOL      0.132628
    126 N11         6.1660   -2.7400    0.5760 n         1 MOL     -0.482593
    127 C39         7.5060   -2.2000    0.9480 c3        1 MOL      0.093337
    128 C40         7.6060   -0.6720    0.5230 c         1 MOL      0.114926
    129 O19         8.3140    0.1020    1.2010 o         1 MOL     -0.469500
    130 C41         8.7040   -2.9310    0.2850 c3        1 MOL      0.205458
    131 C42         8.7750   -4.4420    0.6590 c3        1 MOL     -0.499768
    132 O20         8.4740   -2.9070   -1.1300 oh        1 MOL     -0.579508
    133 H60         6.1100   -3.5670   -0.0100 hn        1 MOL      0.288632
    134 H61         7.6260   -2.1830    2.0260 h1        1 MOL      0.124289
    135 H62         9.6860   -2.5030    0.4800 h1        1 MOL      0.053327
    136 H63         9.3550   -3.1370   -1.4150 ho        1 MOL      0.393812
    137 H64         9.0340   -4.9500   -0.2710 hc        1 MOL      0.148841
    138 H65         9.4090   -4.5920    1.5320 hc        1 MOL      0.148841
    139 H66         7.7820   -4.7280    1.0120 hc        1 MOL      0.148841
    140 N12         7.1930   -0.3500   -0.7210 n         1 MOL      0.023991
    141 C43         7.1390    0.9520   -1.3640 c3        1 MOL      0.029161
    142 C44         6.1490    1.8960   -0.6990 c         1 MOL      0.425969
    143 O21         6.5410    3.0250   -0.4980 o         1 MOL     -0.526519
    144 C45         6.8270    0.7770   -2.8900 c3        1 MOL     -0.385677
    145 C46         7.7880   -0.2610   -3.5950 c3        1 MOL      0.179025
    146 C47         9.2280    0.1010   -3.4580 c3        1 MOL      0.020846
    147 C48        10.2360   -0.7430   -4.2350 c3        1 MOL     -0.127378
    148 N13        11.6550   -0.3520   -3.9880 n4        1 MOL     -0.126358
    149 H67         6.6740   -1.0930   -1.1700 hn        1 MOL      0.206132
    150 H68         8.0410    1.5520   -1.4360 h1        1 MOL      0.048660
    151 H69         6.8660    1.7640   -3.3600 hc        1 MOL      0.139541
    152 H70         5.9000    0.2100   -2.9860 hc        1 MOL      0.139541
    153 H71         7.4640   -0.3640   -4.6260 hc        1 MOL     -0.036086
    154 H72         7.7080   -1.2590   -3.1610 hc        1 MOL     -0.036086
    155 H73         9.4500    0.0820   -2.3950 hc        1 MOL      0.028053
    156 H74         9.2930    1.1550   -3.7300 hc        1 MOL      0.028053
    157 H75        10.1540   -0.6480   -5.3130 hx        1 MOL      0.109597
    158 H76        10.1140   -1.7910   -3.9460 hx        1 MOL      0.109597
    159 H77        11.7740    0.6560   -4.0060 hn        1 MOL      0.244210
    160 H78        11.8480   -0.5360   -3.0180 hn        1 MOL      0.244210
    161 H79        12.4190   -0.7240   -4.5340 hn        1 MOL      0.244210
    162 N14         4.9810    1.5010   -0.3450 n         1 MOL     -0.028109
    163 C49         4.0980    2.2880    0.4720 c3        1 MOL     -0.607482
    164 C50         4.5280    2.4790    1.9840 c         1 MOL      0.677872
    165 O22         4.1230    3.4770    2.6720 o         1 MOL     -0.568232
    166 C51         2.7310    1.5780    0.5540 c3        1 MOL      0.234839
    167 C52         1.8360    1.6670   -0.7350 c3        1 MOL      0.224875
    168 C53         0.5930    0.7890   -0.7110 c         1 MOL      0.502704
    169 O23        -0.5290    1.3360   -0.9410 o         1 MOL     -0.647565
    170 O24         0.6030   -0.4420   -0.4050 o         1 MOL     -0.647565
    171 H80         4.6940    0.5830   -0.6700 hn        1 MOL      0.111409
    172 H81         4.0860    3.2620   -0.0270 h1        1 MOL      0.200634
    173 H82         2.1900    1.9950    1.4020 hc        1 MOL     -0.016585
    174 H83         2.9040    0.5210    0.7750 hc        1 MOL     -0.016585
    175 H84         2.4010    1.3830   -1.6210 hc        1 MOL     -0.079916
    176 H85         1.5430    2.6990   -0.9310 hc        1 MOL     -0.079916
    177 N15         5.2380    1.4630    2.6200 n         1 MOL     -0.365868
    178 C54         6.0270    1.6690    3.8650 c3        1 MOL     -0.319012
    179 H86         7.0030    2.0800    3.6120 h1        1 MOL      0.134322
    180 H87         5.4990    2.3620    4.5190 h1        1 MOL      0.134322
    181 H88         6.1560    0.7140    4.3750 h1        1 MOL      0.134322
    182 H89         5.4850    0.7060    1.9930 hn        1 MOL      0.347718
    183 Ca1        -1.9160   -0.9100   -1.3420 Ca        1 MOL      1.738072
    184 O25        -1.3740   -3.4740   -1.4750 oh        1 MOL     -0.885211
    185 H90        -2.0910   -4.0430   -1.1830 ho        1 MOL      0.411308
    186 H91        -1.0250   -3.8910   -2.2610 ho        1 MOL      0.411308
    187 O26        -0.5720   -0.9340   -3.5460 oh        1 MOL     -0.885211
    188 H92         0.0980   -1.3460   -4.1010 ho        1 MOL      0.411308
    189 H93        -0.9420   -0.2410   -4.0950 ho        1 MOL      0.411308
@<TRIPOS>BOND
     1    1    2 1   
     2    1    4 1   
     3    1    5 1   
     4    1    6 1   
     5    2    3 2   
     6    2    7 1   
     7    7    8 1   
     8    7   15 1   
     9    8    9 1   
    10    8   11 1   
    11    8   16 1   
    12    9   10 2   
    13    9   19 1   
    14   11   12 1   
    15   11   17 1   
    16   11   18 1   
    17   12   13 1   
    18   12   14 1   
    19   19   20 1   
    20   19   28 1   
    21   20   21 1   
    22   20   23 1   
    23   20   29 1   
    24   21   22 2   
    25   21   41 1   
    26   23   24 1   
    27   23   30 1   
    28   23   31 1   
    29   24   25 1   
    30   24   32 1   
    31   24   33 1   
    32   25   26 1   
    33   25   34 1   
    34   25   35 1   
    35   26   27 1   
    36   26   36 1   
    37   26   37 1   
    38   27   38 1   
    39   27   39 1   
    40   27   40 1   
    41   41   42 1   
    42   41   49 1   
    43   42   43 1   
    44   42   45 1   
    45   42   50 1   
    46   43   44 2   
    47   43   53 1   
    48   45   46 1   
    49   45   51 1   
    50   45   52 1   
    51   46   47 1   
    52   46   48 1   
    53   53   54 1   
    54   53   57 1   
    55   54   55 1   
    56   54   58 1   
    57   54   59 1   
    58   55   56 2   
    59   55   60 1   
    60   60   61 1   
    61   60   68 1   
    62   61   62 1   
    63   61   64 1   
    64   61   69 1   
    65   62   63 2   
    66   62   72 1   
    67   64   65 1   
    68   64   70 1   
    69   64   71 1   
    70   65   66 1   
    71   65   67 1   
    72   72   73 1   
    73   72   76 1   
    74   73   74 1   
    75   73   77 1   
    76   73   78 1   
    77   74   75 2   
    78   74   79 1   
    79   79   80 1   
    80   79   86 1   
    81   80   81 1   
    82   80   83 1   
    83   80   87 1   
    84   81   82 2   
    85   81   93 1   
    86   83   84 1   
    87   83   85 1   
    88   83   88 1   
    89   84   90 1   
    90   84   91 1   
    91   84   92 1   
    92   85   89 1   
    93   93   94 1   
    94   93  101 1   
    95   94   95 1   
    96   94   97 1   
    97   94  102 1   
    98   95   96 2   
    99   95  112 1   
   100   97   98 1   
   101   97   99 1   
   102   97  103 1   
   103   98  100 1   
   104   98  104 1   
   105   98  105 1   
   106   99  106 1   
   107   99  107 1   
   108   99  108 1   
   109  100  109 1   
   110  100  110 1   
   111  100  111 1   
   112  112  113 1   
   113  112  119 1   
   114  113  114 1   
   115  113  116 1   
   116  113  120 1   
   117  114  115 2   
   118  114  126 1   
   119  116  117 1   
   120  116  118 1   
   121  116  121 1   
   122  117  123 1   
   123  117  124 1   
   124  117  125 1   
   125  118  122 1   
   126  126  127 1   
   127  126  133 1   
   128  127  128 1   
   129  127  130 1   
   130  127  134 1   
   131  128  129 2   
   132  128  140 1   
   133  130  131 1   
   134  130  132 1   
   135  130  135 1   
   136  131  137 1   
   137  131  138 1   
   138  131  139 1   
   139  132  136 1   
   140  140  141 1   
   141  140  149 1   
   142  141  142 1   
   143  141  144 1   
   144  141  150 1   
   145  142  143 2   
   146  142  162 1   
   147  144  145 1   
   148  144  151 1   
   149  144  152 1   
   150  145  146 1   
   151  145  153 1   
   152  145  154 1   
   153  146  147 1   
   154  146  155 1   
   155  146  156 1   
   156  147  148 1   
   157  147  157 1   
   158  147  158 1   
   159  148  159 1   
   160  148  160 1   
   161  148  161 1   
   162  162  163 1   
   163  162  171 1   
   164  163  164 1   
   165  163  166 1   
   166  163  172 1   
   167  164  165 2   
   168  164  177 1   
   169  166  167 1   
   170  166  173 1   
   171  166  174 1   
   172  167  168 1   
   173  167  175 1   
   174  167  176 1   
   175  168  169 1   
   176  168  170 1   
   177  177  178 1   
   178  177  182 1   
   179  178  179 1   
   180  178  180 1   
   181  178  181 1   
   182  184  185 1   
   183  184  186 1   
   184  187  188 1   
   185  187  189 1   
@<TRIPOS>SUBSTRUCTURE
     1 MOL         1 TEMP              0 ****  ****    0 ROOT
