@<TRIPOS>MOLECULE
MOL
  175   173     1     0     0
SMALL
resp


@<TRIPOS>ATOM
      1 C1          0.4400    3.6160    5.6620 c3        1 MOL     -0.313214
      2 C2         -0.2460    3.7080    4.3040 c         1 MOL      0.713254
      3 O1          0.4470    4.0160    3.3420 o         1 MOL     -0.540171
      4 H1          0.3560    4.5740    6.1750 hc        1 MOL      0.073528
      5 H2         -0.0380    2.8410    6.2600 hc        1 MOL      0.073528
      6 H3          1.4920    3.3710    5.5220 hc        1 MOL      0.073528
      7 N1         -1.5800    3.6010    4.2060 n         1 MOL     -0.699009
      8 C3         -2.1480    3.3460    2.8480 c3        1 MOL      0.359993
      9 C4         -2.2140    4.5870    1.9440 c         1 MOL      0.535565
     10 O2         -2.7370    5.6440    2.2590 o         1 MOL     -0.581704
     11 C5         -3.5670    2.7630    3.0090 c3        1 MOL     -0.596442
     12 C6         -4.1690    2.4720    1.5710 c         1 MOL      0.864283
     13 O3         -3.4710    2.0440    0.6100 o         1 MOL     -0.669207
     14 O4         -5.3850    2.7160    1.3770 o         1 MOL     -0.669207
     15 H4         -2.1360    3.3760    5.0130 hn        1 MOL      0.348719
     16 H5         -1.5110    2.5830    2.3970 h1        1 MOL      0.014002
     17 H6         -4.1400    3.5050    3.5740 hc        1 MOL      0.123288
     18 H7         -3.4080    1.8370    3.5730 hc        1 MOL      0.123288
     19 N2         -1.7430    4.4510    0.6900 n         1 MOL     -0.474567
     20 C7         -1.8340    5.4280   -0.4680 c3        1 MOL      0.353743
     21 C8         -2.6860    4.9680   -1.6620 c         1 MOL      0.481712
     22 O5         -2.6590    5.6570   -2.6290 o         1 MOL     -0.575509
     23 C9         -0.4630    5.8940   -0.8040 c3        1 MOL     -0.107965
     24 H8         -1.1240    3.6630    0.6040 hn        1 MOL      0.232036
     25 H9         -2.3290    6.3280   -0.1320 h1        1 MOL     -0.005935
     26 H10         0.0970    5.1350   -1.3490 hc        1 MOL      0.010554
     27 H11        -0.6150    6.7340   -1.4810 hc        1 MOL      0.010554
     28 H12         0.1410    6.2270    0.0400 hc        1 MOL      0.010554
     29 N3         -3.4620    3.9000   -1.6110 n         1 MOL     -0.307256
     30 C10        -4.4190    3.5590   -2.7230 c3        1 MOL      0.084532
     31 C11        -5.8140    2.8880   -2.3840 c         1 MOL      0.377739
     32 O6         -6.7720    2.8980   -3.1330 o         1 MOL     -0.562120
     33 C12        -3.7340    2.6360   -3.7600 c3        1 MOL     -0.307118
     34 C13        -3.0650    1.4500   -3.0760 c         1 MOL      0.766024
     35 O7         -3.8320    0.7210   -2.4580 o         1 MOL     -0.724382
     36 O8         -1.8300    1.3310   -2.9040 o         1 MOL     -0.724382
     37 H13        -3.4850    3.4220   -0.7220 hn        1 MOL      0.147167
     38 H14        -4.7340    4.4980   -3.1750 h1        1 MOL      0.080465
     39 H15        -2.9190    3.1740   -4.2620 hc        1 MOL      0.075640
     40 H16        -4.4660    2.2310   -4.4580 hc        1 MOL      0.075640
     41 N4         -6.0690    2.3760   -1.1800 n         1 MOL     -0.116549
     42 C14        -7.3440    1.6900   -0.8210 c3        1 MOL     -0.238273
     43 C15        -7.4160    0.2000   -1.2010 c         1 MOL      0.463291
     44 O9         -8.4400   -0.4620   -0.9240 o         1 MOL     -0.603052
     45 H17        -5.2830    2.2830   -0.5420 hn        1 MOL      0.106908
     46 H18        -8.1410    2.2200   -1.3510 h1        1 MOL      0.129046
     47 H19        -7.4660    1.8790    0.2410 h1        1 MOL      0.129046
     48 N5         -6.3230   -0.3470   -1.7200 n         1 MOL     -0.073482
     49 C16        -6.4100   -1.7620   -2.1370 c3        1 MOL     -0.117700
     50 C17        -6.5880   -2.8000   -0.9730 c         1 MOL      0.460430
     51 O10        -6.8980   -3.9800   -1.2040 o         1 MOL     -0.551825
     52 C18        -5.2800   -2.2550   -3.0680 c3        1 MOL     -0.011888
     53 C19        -3.8560   -2.2190   -2.4800 c         1 MOL      0.576939
     54 N6         -2.8130   -2.3590   -3.2800 n         1 MOL     -0.676732
     55 O11        -3.6980   -2.0270   -1.3020 o         1 MOL     -0.571427
     56 H20        -5.4430    0.1220   -1.8590 hn        1 MOL      0.165512
     57 H21        -7.2620   -1.9570   -2.7900 h1        1 MOL      0.089549
     58 H22        -5.3070   -1.7380   -4.0270 hc        1 MOL      0.023705
     59 H23        -5.4130   -3.3080   -3.3050 hc        1 MOL      0.023705
     60 H24        -2.9310   -2.6290   -4.2480 hn        1 MOL      0.337861
     61 H25        -1.9150   -2.1210   -2.8980 hn        1 MOL      0.337861
     62 N7         -6.2800   -2.4100    0.2460 n         1 MOL     -0.069735
     63 C20        -6.3580   -3.1970    1.4900 c3        1 MOL     -0.357701
     64 C21        -5.1830   -4.1450    1.7960 c         1 MOL      0.568656
     65 O12        -5.3160   -5.1670    2.5340 o         1 MOL     -0.571260
     66 H26        -5.7940   -1.5300    0.3160 hn        1 MOL      0.169167
     67 H27        -7.2340   -3.8440    1.4030 h1        1 MOL      0.131310
     68 H28        -6.5110   -2.4640    2.2950 h1        1 MOL      0.131310
     69 N8         -4.0200   -3.8350    1.1970 n         1 MOL     -0.154292
     70 C22        -2.7170   -4.4690    1.2990 c3        1 MOL     -0.274944
     71 C23        -1.5420   -3.5480    1.3360 c         1 MOL      0.474349
     72 O13        -1.6270   -2.4790    0.7040 o         1 MOL     -0.376247
     73 C24        -2.4480   -5.3670    0.1010 c3        1 MOL      0.540726
     74 C25        -3.2160   -6.7150    0.0840 c3        1 MOL     -0.374687
     75 O14        -2.7250   -4.8220   -1.1670 oh        1 MOL     -0.547542
     76 H29        -3.9560   -3.0710    0.5280 hn        1 MOL      0.129997
     77 H30        -2.6130   -5.1320    2.1640 h1        1 MOL      0.103883
     78 H31        -1.4270   -5.7360   -0.0070 h1        1 MOL     -0.030970
     79 H32        -2.4460   -3.9160   -1.0360 ho        1 MOL      0.292228
     80 H33        -2.5590   -7.5110   -0.2710 hc        1 MOL      0.084509
     81 H34        -3.4950   -6.9910    1.0950 hc        1 MOL      0.084509
     82 H35        -4.0880   -6.7670   -0.5770 hc        1 MOL      0.084509
     83 N9         -0.4180   -3.8980    1.9990 n         1 MOL     -0.473213
     84 C26         0.7160   -2.9980    2.0060 c3        1 MOL      0.034749
     85 C27         1.4660   -3.1810    0.6870 c         1 MOL      0.419333
     86 O15         1.5990   -4.2970    0.1840 o         1 MOL     -0.568568
     87 C28         1.6570   -3.2300    3.2130 c3        1 MOL      0.116805
     88 C29         0.8760   -2.6500    4.4200 c3        1 MOL     -0.004519
     89 C30         2.9530   -2.5390    3.0850 c3        1 MOL     -0.067816
     90 C31         1.6970   -2.5990    5.7500 c3        1 MOL     -0.195724
     91 H36        -0.3310   -4.7660    2.5090 hn        1 MOL      0.291283
     92 H37         0.4380   -1.9480    1.9050 h1        1 MOL      0.052295
     93 H38         1.8190   -4.2970    3.3840 hc        1 MOL      0.000662
     94 H39        -0.0940   -3.1480    4.4870 hc        1 MOL     -0.007701
     95 H40         0.6090   -1.6200    4.1630 hc        1 MOL     -0.007701
     96 H41         2.7640   -1.5580    2.6630 hc        1 MOL      0.010049
     97 H42         3.5480   -2.4760    3.9960 hc        1 MOL      0.010049
     98 H43         3.5570   -3.1150    2.3760 hc        1 MOL      0.010049
     99 H44         1.0670   -2.2460    6.5560 hc        1 MOL      0.050277
    100 H45         2.1180   -3.5590    6.0510 hc        1 MOL      0.050277
    101 H46         2.4790   -1.8410    5.7450 hc        1 MOL      0.050277
    102 N10         1.9940   -2.1050    0.0960 n         1 MOL     -0.018028
    103 C32         2.6910   -1.9710   -1.1840 c3        1 MOL      0.067650
    104 C33         4.0610   -1.4980   -0.9210 c         1 MOL      0.298466
    105 O16         4.3660   -1.0120    0.1940 o         1 MOL     -0.284518
    106 C34         1.8450   -1.0690   -2.1600 c3        1 MOL     -0.350464
    107 C35         0.4280   -1.6340   -2.5080 c         1 MOL      0.727925
    108 O17        -0.5000   -1.4540   -1.7040 o         1 MOL     -0.671835
    109 O18         0.1450   -2.0870   -3.6340 o         1 MOL     -0.671835
    110 H47         1.7440   -1.2120    0.4940 hn        1 MOL     -0.044161
    111 H48         2.8150   -2.9420   -1.6680 h1        1 MOL      0.076195
    112 H49         2.2910   -0.8030   -3.1250 hc        1 MOL      0.103407
    113 H50         1.6440   -0.0730   -1.7590 hc        1 MOL      0.103407
    114 N11         5.0680   -1.6750   -1.8190 n         1 MOL     -0.487223
    115 C36         6.4930   -1.3670   -1.5300 c3        1 MOL      0.190406
    116 C37         6.7960    0.0580   -1.0450 c         1 MOL      0.444631
    117 O19         7.3860    0.1990    0.0320 o         1 MOL     -0.504707
    118 C38         7.3390   -1.9540   -2.6250 c3        1 MOL     -0.121484
    119 C39         8.7590   -1.7270   -2.2910 ca        1 MOL      0.022810
    120 C40         9.4270   -2.6590   -1.4600 ca        1 MOL     -0.105793
    121 C41         9.4650   -0.6450   -2.6990 ca        1 MOL     -0.105793
    122 C42        10.8400   -2.5510   -1.1710 ca        1 MOL     -0.164378
    123 C43        10.8230   -0.4450   -2.3400 ca        1 MOL     -0.164378
    124 C44        11.5110   -1.3860   -1.5630 ca        1 MOL     -0.071406
    125 H51         4.7650   -1.8890   -2.7550 hn        1 MOL      0.291389
    126 H52         6.6680   -1.9680   -0.6250 h1        1 MOL      0.069922
    127 H53         7.0990   -1.5420   -3.5960 hc        1 MOL      0.053855
    128 H54         7.1410   -3.0260   -2.6500 hc        1 MOL      0.053855
    129 H55         8.9290   -3.5450   -1.1150 ha        1 MOL      0.097462
    130 H56         9.0230    0.0790   -3.3680 ha        1 MOL      0.097462
    131 H57        11.3470   -3.3060   -0.5920 ha        1 MOL      0.121376
    132 H58        11.3900    0.4400   -2.5870 ha        1 MOL      0.121376
    133 H59        12.5180   -1.1530   -1.2540 ha        1 MOL      0.100431
    134 N12         6.3840    1.0570   -1.7880 n         1 MOL     -0.134783
    135 C45         6.6080    2.4440   -1.2640 c3        1 MOL     -0.055330
    136 C46         5.8830    2.6980    0.0680 c         1 MOL      0.354965
    137 O20         6.3550    3.6280    0.8390 o         1 MOL     -0.513257
    138 C47         6.0850    3.3130   -2.3970 c3        1 MOL     -0.107059
    139 C48         5.0420    2.5200   -3.1120 c3        1 MOL     -0.152371
    140 C49         5.7100    1.1040   -3.0900 c3        1 MOL      0.092854
    141 H60         7.6770    2.6540   -1.1610 h1        1 MOL      0.087859
    142 H61         5.7050    4.2410   -1.9740 hc        1 MOL      0.071131
    143 H62         6.8660    3.5480   -3.1240 hc        1 MOL      0.071131
    144 H63         4.1330    2.4220   -2.5230 hc        1 MOL      0.068513
    145 H64         5.0090    2.7960   -4.1660 hc        1 MOL      0.068513
    146 H65         4.9010    0.3810   -3.2200 h1        1 MOL      0.008342
    147 H66         6.3900    1.0270   -3.9310 h1        1 MOL      0.008342
    148 N13         4.8010    1.9560    0.3420 n         1 MOL     -0.167615
    149 C50         4.0780    2.0180    1.6900 c3        1 MOL     -0.210430
    150 C51         4.8180    1.2110    2.7220 c         1 MOL      0.475876
    151 O21         4.8390    1.5630    3.8870 o         1 MOL     -0.584989
    152 C52         2.6910    1.4700    1.6280 c3        1 MOL      0.072642
    153 C53         1.7540    2.2670    0.6610 c3        1 MOL     -0.127274
    154 C54         0.4110    1.4530    0.5560 c         1 MOL      0.505078
    155 O22        -0.5350    1.9670   -0.0410 o         1 MOL     -0.619572
    156 O23         0.2690    0.2860    1.0320 o         1 MOL     -0.619572
    157 H67         4.5040    1.2970   -0.3580 hn        1 MOL      0.276749
    158 H68         4.0450    3.0820    1.9460 h1        1 MOL      0.154764
    159 H69         2.2910    1.5000    2.6440 hc        1 MOL      0.044595
    160 H70         2.5680    0.4560    1.2520 hc        1 MOL      0.044595
    161 H71         2.3310    2.2050   -0.2610 hc        1 MOL      0.049682
    162 H72         1.6170    3.2200    1.1650 hc        1 MOL      0.049682
    163 N14         5.4730    0.1190    2.3990 n         1 MOL      0.006385
    164 C55         6.3540   -0.6950    3.2390 c3        1 MOL     -0.143780
    165 H73         6.3680   -0.2900    4.2510 h1        1 MOL      0.061689
    166 H74         5.9870   -1.7220    3.2650 h1        1 MOL      0.061689
    167 H75         7.3640   -0.6800    2.8300 h1        1 MOL      0.061689
    168 H76         5.2680   -0.1760    1.4580 hn        1 MOL     -0.028301
    169 Ca1        -2.1170   -0.0140   -0.3900 Ca        1 MOL      1.706138
    170 O24        -4.1460   -0.6320    1.5170 oh        1 MOL     -0.856774
    171 H77        -3.4750   -0.6320    2.2010 ho        1 MOL      0.414061
    172 H78        -4.9600   -0.4250    1.9760 ho        1 MOL      0.414061
    173 O25        -1.8270   -0.3170    2.7740 oh        1 MOL     -0.856774
    174 H79        -1.7080   -0.2650    3.7140 ho        1 MOL      0.414061
    175 H80        -0.9440   -0.3180    2.4140 ho        1 MOL      0.414061
@<TRIPOS>BOND
     1    1    2 1   
     2    1    4 1   
     3    1    5 1   
     4    1    6 1   
     5    2    3 2   
     6    2    7 1   
     7    7    8 1   
     8    7   15 1   
     9    8    9 1   
    10    8   11 1   
    11    8   16 1   
    12    9   10 2   
    13    9   19 1   
    14   11   12 1   
    15   11   17 1   
    16   11   18 1   
    17   12   13 1   
    18   12   14 1   
    19   19   20 1   
    20   19   24 1   
    21   20   21 1   
    22   20   23 1   
    23   20   25 1   
    24   21   22 2   
    25   21   29 1   
    26   23   26 1   
    27   23   27 1   
    28   23   28 1   
    29   29   30 1   
    30   29   37 1   
    31   30   31 1   
    32   30   33 1   
    33   30   38 1   
    34   31   32 2   
    35   31   41 1   
    36   33   34 1   
    37   33   39 1   
    38   33   40 1   
    39   34   35 1   
    40   34   36 1   
    41   41   42 1   
    42   41   45 1   
    43   42   43 1   
    44   42   46 1   
    45   42   47 1   
    46   43   44 2   
    47   43   48 1   
    48   48   49 1   
    49   48   56 1   
    50   49   50 1   
    51   49   52 1   
    52   49   57 1   
    53   50   51 2   
    54   50   62 1   
    55   52   53 1   
    56   52   58 1   
    57   52   59 1   
    58   53   54 1   
    59   53   55 2   
    60   54   60 1   
    61   54   61 1   
    62   62   63 1   
    63   62   66 1   
    64   63   64 1   
    65   63   67 1   
    66   63   68 1   
    67   64   65 2   
    68   64   69 1   
    69   69   70 1   
    70   69   76 1   
    71   70   71 1   
    72   70   73 1   
    73   70   77 1   
    74   71   72 2   
    75   71   83 1   
    76   73   74 1   
    77   73   75 1   
    78   73   78 1   
    79   74   80 1   
    80   74   81 1   
    81   74   82 1   
    82   75   79 1   
    83   83   84 1   
    84   83   91 1   
    85   84   85 1   
    86   84   87 1   
    87   84   92 1   
    88   85   86 2   
    89   85  102 1   
    90   87   88 1   
    91   87   89 1   
    92   87   93 1   
    93   88   90 1   
    94   88   94 1   
    95   88   95 1   
    96   89   96 1   
    97   89   97 1   
    98   89   98 1   
    99   90   99 1   
   100   90  100 1   
   101   90  101 1   
   102  102  103 1   
   103  102  110 1   
   104  103  104 1   
   105  103  106 1   
   106  103  111 1   
   107  104  105 2   
   108  104  114 1   
   109  106  107 1   
   110  106  112 1   
   111  106  113 1   
   112  107  108 1   
   113  107  109 1   
   114  114  115 1   
   115  114  125 1   
   116  115  116 1   
   117  115  118 1   
   118  115  126 1   
   119  116  117 2   
   120  116  134 1   
   121  118  119 1   
   122  118  127 1   
   123  118  128 1   
   124  119  120 ar  
   125  119  121 ar  
   126  120  122 ar  
   127  120  129 1   
   128  121  123 ar  
   129  121  130 1   
   130  122  124 ar  
   131  122  131 1   
   132  123  124 ar  
   133  123  132 1   
   134  124  133 1   
   135  134  135 1   
   136  134  140 1   
   137  135  136 1   
   138  135  138 1   
   139  135  141 1   
   140  136  137 2   
   141  136  148 1   
   142  138  139 1   
   143  138  142 1   
   144  138  143 1   
   145  139  140 1   
   146  139  144 1   
   147  139  145 1   
   148  140  146 1   
   149  140  147 1   
   150  148  149 1   
   151  148  157 1   
   152  149  150 1   
   153  149  152 1   
   154  149  158 1   
   155  150  151 2   
   156  150  163 1   
   157  152  153 1   
   158  152  159 1   
   159  152  160 1   
   160  153  154 1   
   161  153  161 1   
   162  153  162 1   
   163  154  155 1   
   164  154  156 1   
   165  163  164 1   
   166  163  168 1   
   167  164  165 1   
   168  164  166 1   
   169  164  167 1   
   170  170  171 1   
   171  170  172 1   
   172  173  174 1   
   173  173  175 1   
@<TRIPOS>SUBSTRUCTURE
     1 MOL         1 TEMP              0 ****  ****    0 ROOT
