@<TRIPOS>MOLECULE
MOL
  189   185     1     0     0
SMALL
resp


@<TRIPOS>ATOM
      1 C1          0.8240    4.1560   -4.2840 c3        1 MOL     -0.231564
      2 C2          1.2430    3.5490   -3.0040 c         1 MOL      0.659940
      3 O1          0.4790    3.6630   -2.0150 o         1 MOL     -0.583644
      4 H1         -0.0050    4.8410   -4.1070 hc        1 MOL      0.060603
      5 H2          1.6610    4.7020   -4.7180 hc        1 MOL      0.060603
      6 H3          0.5060    3.3720   -4.9710 hc        1 MOL      0.060603
      7 N1          2.3430    2.7310   -2.9610 n         1 MOL     -0.655111
      8 C3          2.8020    1.9190   -1.8430 c3        1 MOL      0.348131
      9 C4          3.5530    2.7550   -0.7760 c         1 MOL      0.288674
     10 O2          4.7700    2.5120   -0.4950 o         1 MOL     -0.463510
     11 C5          3.7140    0.7680   -2.3860 c3        1 MOL     -0.451448
     12 C6          4.0060   -0.2990   -1.3150 c         1 MOL      0.808136
     13 O3          4.7930   -1.2450   -1.5410 o         1 MOL     -0.656922
     14 O4          3.4490   -0.1930   -0.1910 o         1 MOL     -0.656922
     15 H4          2.7650    2.6150   -3.8680 hn        1 MOL      0.329273
     16 H5          1.9880    1.6070   -1.1820 h1        1 MOL      0.055185
     17 H6          4.6700    1.1480   -2.7710 hc        1 MOL      0.109580
     18 H7          3.1800    0.2360   -3.1810 hc        1 MOL      0.109580
     19 N2          2.9180    3.8170   -0.2320 n         1 MOL     -0.238582
     20 C7          3.5640    4.7930    0.6570 c3        1 MOL      0.097018
     21 C8          4.1170    4.2510    2.0060 c         1 MOL      0.564120
     22 O5          4.4230    4.9840    2.9280 o         1 MOL     -0.563022
     23 C9          2.7760    6.0240    0.8190 c3        1 MOL     -0.161533
     24 C10         3.0230    7.0050   -0.2980 c3        1 MOL      0.135087
     25 C11         4.3350    7.8040   -0.2760 c3        1 MOL     -0.166411
     26 C12         4.5260    8.4180   -1.6380 c3        1 MOL      0.186877
     27 N3          5.3240    9.6390   -1.6420 n4        1 MOL     -0.426231
     28 H8          1.9440    3.9930   -0.4290 hn        1 MOL      0.256753
     29 H9          4.5540    4.9910    0.2480 h1        1 MOL      0.028048
     30 H10         3.1440    6.6110    1.6650 hc        1 MOL      0.091879
     31 H11         1.7240    5.7680    0.8910 hc        1 MOL      0.091879
     32 H12         2.1430    7.6590   -0.3040 hc        1 MOL     -0.025530
     33 H13         2.9840    6.4580   -1.2500 hc        1 MOL     -0.025530
     34 H14         5.1660    7.1170   -0.0950 hc        1 MOL      0.051038
     35 H15         4.1960    8.4980    0.5660 hc        1 MOL      0.051038
     36 H16         3.5190    8.7110   -1.9580 hx        1 MOL      0.038647
     37 H17         4.9000    7.6190   -2.2660 hx        1 MOL      0.038647
     38 H18         4.8460   10.3580   -1.1250 hn        1 MOL      0.346091
     39 H19         6.2350    9.4550   -1.2380 hn        1 MOL      0.346091
     40 H20         5.5430    9.9460   -2.5750 hn        1 MOL      0.346091
     41 N4          4.3130    2.9160    2.1480 n         1 MOL     -0.521327
     42 C13         4.8570    2.2020    3.3450 c3        1 MOL      0.233392
     43 C14         5.6980    0.9520    2.9350 c         1 MOL      0.258217
     44 O6          6.3280    0.3980    3.8350 o         1 MOL     -0.488954
     45 C15         3.7740    1.9100    4.4200 c3        1 MOL     -0.358829
     46 C16         2.6510    1.1380    3.7930 c         1 MOL      0.877411
     47 O7          2.8820    0.2610    2.9150 o         1 MOL     -0.719328
     48 O8          1.4980    1.4060    4.1480 o         1 MOL     -0.719328
     49 H21         4.1690    2.2660    1.3940 hn        1 MOL      0.276845
     50 H22         5.5210    2.9240    3.8170 h1        1 MOL      0.054493
     51 H23         3.4060    2.8640    4.7970 hc        1 MOL      0.090637
     52 H24         4.3170    1.3420    5.1730 hc        1 MOL      0.090637
     53 N5          6.0650    0.7460    1.7100 n         1 MOL     -0.069742
     54 C17         7.3060    0.0570    1.2100 c3        1 MOL     -0.109738
     55 C18         7.3280   -1.4610    1.4160 c         1 MOL      0.401187
     56 O9          8.4500   -1.9870    1.7190 o         1 MOL     -0.558623
     57 H25         5.5760    1.2600    0.9910 hn        1 MOL      0.074500
     58 H26         8.1850    0.5770    1.5970 h1        1 MOL      0.094746
     59 H27         7.2670    0.2460    0.1350 h1        1 MOL      0.094746
     60 N6          6.1750   -2.1630    1.3630 n         1 MOL     -0.101391
     61 C19         6.1230   -3.6360    1.4850 c3        1 MOL     -0.072935
     62 C20         5.9360   -4.4430    0.2350 c         1 MOL      0.360764
     63 O10         5.9810   -5.6610    0.2640 o         1 MOL     -0.496944
     64 C21         4.9960   -4.0160    2.3940 c3        1 MOL     -0.164892
     65 C22         3.6110   -3.4600    2.0000 c         1 MOL      0.699661
     66 O11         2.8440   -2.8190    2.7460 o         1 MOL     -0.719913
     67 O12         3.2260   -3.5900    0.7920 o         1 MOL     -0.719913
     68 H28         5.3170   -1.6540    1.2250 hn        1 MOL      0.158884
     69 H29         7.0010   -4.0320    1.9940 h1        1 MOL      0.146210
     70 H30         5.2970   -3.6940    3.3920 hc        1 MOL      0.058586
     71 H31         5.0340   -5.1040    2.4120 hc        1 MOL      0.058586
     72 N7          5.8270   -3.7580   -0.9540 n         1 MOL     -0.175022
     73 C23         5.7140   -4.3770   -2.2560 c3        1 MOL     -0.236975
     74 C24         4.3040   -4.8380   -2.5620 c         1 MOL      0.598094
     75 O13         4.1740   -5.7270   -3.3780 o         1 MOL     -0.579477
     76 H32         5.5660   -2.7880   -0.9220 hn        1 MOL      0.144314
     77 H33         6.4120   -5.2090   -2.3050 h1        1 MOL      0.113988
     78 H34         5.9670   -3.5560   -2.9270 h1        1 MOL      0.113988
     79 N8          3.2430   -4.2600   -1.9600 n         1 MOL     -0.312593
     80 C25         1.8270   -4.5700   -2.2460 c3        1 MOL     -0.069482
     81 C26         0.9380   -3.3460   -2.0140 c         1 MOL      0.682508
     82 O14         1.3290   -2.4800   -1.2640 o         1 MOL     -0.713213
     83 C27         1.3010   -5.7050   -1.3070 c3        1 MOL      0.507859
     84 C28         1.9170   -7.0940   -1.5010 c3        1 MOL     -0.438607
     85 O15         1.3870   -5.3680    0.0440 oh        1 MOL     -0.698120
     86 H35         3.3460   -3.5040   -1.2960 hn        1 MOL      0.244571
     87 H36         1.6050   -4.9250   -3.2520 h1        1 MOL      0.044980
     88 H37         0.2600   -5.8780   -1.5590 h1        1 MOL     -0.040537
     89 H38         2.1670   -4.8380    0.2330 ho        1 MOL      0.471943
     90 H39         3.0020   -7.0530   -1.4570 hc        1 MOL      0.107858
     91 H40         1.5450   -7.7400   -0.7220 hc        1 MOL      0.107858
     92 H41         1.5980   -7.3710   -2.5120 hc        1 MOL      0.107858
     93 N9         -0.2390   -3.2700   -2.6090 n         1 MOL     -0.664266
     94 C29        -1.1150   -2.0900   -2.6380 c3        1 MOL      0.041115
     95 C30        -2.5170   -2.4390   -2.1170 c         1 MOL      0.587448
     96 O16        -3.1160   -3.4510   -2.5620 o         1 MOL     -0.584382
     97 C31        -1.1310   -1.4470   -4.0210 c3        1 MOL      0.161146
     98 C32         0.2140   -0.9220   -4.5140 c3        1 MOL      0.254830
     99 C33        -2.1520   -0.3080   -4.0570 c3        1 MOL     -0.325707
    100 C34         0.3010   -0.4420   -5.9640 c3        1 MOL     -0.400734
    101 H42        -0.4550   -4.1230   -3.1110 hn        1 MOL      0.315362
    102 H43        -0.7130   -1.3570   -1.9310 h1        1 MOL      0.146983
    103 H44        -1.4500   -2.1930   -4.7600 hc        1 MOL      0.002804
    104 H45         0.8810   -1.7830   -4.4690 hc        1 MOL     -0.034388
    105 H46         0.6910   -0.2310   -3.8200 hc        1 MOL     -0.034388
    106 H47        -3.1220   -0.4330   -3.5660 hc        1 MOL      0.044470
    107 H48        -1.8260    0.6270   -3.5940 hc        1 MOL      0.044470
    108 H49        -2.4370   -0.1340   -5.0970 hc        1 MOL      0.044470
    109 H50        -0.3260    0.4190   -6.1810 hc        1 MOL      0.093099
    110 H51         1.3410   -0.2150   -6.1770 hc        1 MOL      0.093099
    111 H52        -0.1810   -1.1860   -6.6100 hc        1 MOL      0.093099
    112 N10        -2.9800   -1.7620   -1.0620 n         1 MOL     -0.307093
    113 C35        -4.2410   -1.9920   -0.3900 c3        1 MOL     -0.029973
    114 C36        -5.4180   -1.2470   -0.9130 c         1 MOL      0.415827
    115 O17        -5.3730   -0.1850   -1.4620 o         1 MOL     -0.308579
    116 C37        -4.2010   -1.6410    1.1010 c3        1 MOL     -0.052486
    117 C38        -3.1450   -2.3250    1.8780 c3        1 MOL     -0.447669
    118 O18        -4.1180   -0.2520    1.3580 oh        1 MOL     -0.462109
    119 H53        -2.3950   -0.9940   -0.7510 hn        1 MOL      0.255796
    120 H54        -4.4450   -3.0690   -0.4010 h1        1 MOL      0.097609
    121 H55        -5.1540   -2.0120    1.4900 h1        1 MOL      0.067205
    122 H56        -3.2310   -0.0700    1.6830 ho        1 MOL      0.436018
    123 H57        -3.1220   -3.3790    1.6280 hc        1 MOL      0.133398
    124 H58        -2.1660   -1.8560    1.8940 hc        1 MOL      0.133398
    125 H59        -3.4090   -2.2870    2.9370 hc        1 MOL      0.133398
    126 N11        -6.5680   -1.7860   -0.5390 n         1 MOL     -0.445946
    127 C39        -7.8490   -1.0370   -0.7690 c3        1 MOL      0.082094
    128 C40        -7.8930    0.4000   -0.3100 c         1 MOL      0.062611
    129 O19        -8.5180    1.2690   -0.9650 o         1 MOL     -0.452709
    130 C41        -9.0280   -1.7710   -0.0840 c3        1 MOL      0.247477
    131 C42        -9.5360   -3.0670   -0.7050 c3        1 MOL     -0.531323
    132 O20        -8.7220   -2.0220    1.2680 oh        1 MOL     -0.655872
    133 H60        -6.5510   -2.6190    0.0340 hn        1 MOL      0.320906
    134 H61        -8.2050   -1.0590   -1.7970 h1        1 MOL      0.111623
    135 H62        -9.9380   -1.1920   -0.2130 h1        1 MOL      0.072671
    136 H63        -9.4420   -2.4290    1.7590 ho        1 MOL      0.408613
    137 H64        -8.6810   -3.7380   -0.5540 hc        1 MOL      0.153610
    138 H65       -10.5290   -3.3390   -0.3630 hc        1 MOL      0.153610
    139 H66        -9.6890   -2.8920   -1.7680 hc        1 MOL      0.153610
    140 N12        -7.0860    0.6690    0.7520 n         1 MOL      0.287948
    141 C43        -7.0560    1.9390    1.4000 c3        1 MOL     -0.185711
    142 C44        -5.9650    2.8630    0.7850 c         1 MOL      0.278164
    143 O21        -6.1600    4.0600    0.8170 o         1 MOL     -0.493342
    144 C45        -6.7040    1.7630    2.8900 c3        1 MOL     -0.062489
    145 C46        -7.7070    0.8640    3.6240 c3        1 MOL     -0.098584
    146 C47        -7.1750   -0.5530    3.9550 c3        1 MOL     -0.173364
    147 C48        -8.1340   -1.2950    4.8750 c3        1 MOL      0.107533
    148 N13        -7.6170   -2.6900    5.1070 n4        1 MOL     -0.168837
    149 H67        -6.4860   -0.1080    0.9780 hn        1 MOL      0.072912
    150 H68        -8.0560    2.3830    1.2840 h1        1 MOL      0.142266
    151 H69        -6.7900    2.6780    3.4780 hc        1 MOL      0.050700
    152 H70        -5.7080    1.3480    3.0480 hc        1 MOL      0.050700
    153 H71        -8.6230    0.8180    3.0400 hc        1 MOL      0.077238
    154 H72        -7.8410    1.3730    4.5840 hc        1 MOL      0.077238
    155 H73        -6.2380   -0.4740    4.4930 hc        1 MOL      0.062249
    156 H74        -6.9960   -1.1770    3.0750 hc        1 MOL      0.062249
    157 H75        -9.0490   -1.3570    4.2770 hx        1 MOL      0.041002
    158 H76        -8.4190   -0.8170    5.8080 hx        1 MOL      0.041002
    159 H77        -8.1300   -3.1940    5.8140 hn        1 MOL      0.253001
    160 H78        -7.8490   -3.3390    4.3650 hn        1 MOL      0.253001
    161 H79        -6.6160   -2.7330    5.2580 hn        1 MOL      0.253001
    162 N14        -4.8970    2.3990    0.2280 n         1 MOL      0.081861
    163 C49        -3.9270    3.1800   -0.5770 c3        1 MOL     -0.258729
    164 C50        -4.6550    3.6520   -1.8090 c         1 MOL      0.417719
    165 O22        -4.6400    4.8310   -2.0930 o         1 MOL     -0.522689
    166 C51        -2.7070    2.3260   -0.8990 c3        1 MOL      0.192137
    167 C52        -1.8680    2.1790    0.3590 c3        1 MOL     -0.092879
    168 C53        -0.7120    1.1710    0.3000 c         1 MOL      0.953648
    169 O23        -0.9360    0.0180   -0.1210 o         1 MOL     -0.879189
    170 O24         0.4640    1.3150    0.6850 o         1 MOL     -0.879189
    171 H80        -4.6740    1.4320    0.3860 hn        1 MOL      0.079326
    172 H81        -3.6610    4.0520    0.0340 h1        1 MOL      0.138336
    173 H82        -2.0370    2.7930   -1.6360 hc        1 MOL      0.010200
    174 H83        -2.9810    1.3490   -1.3000 hc        1 MOL      0.010200
    175 H84        -2.5590    1.6740    1.0410 hc        1 MOL     -0.037767
    176 H85        -1.5170    3.1410    0.7350 hc        1 MOL     -0.037767
    177 N15        -5.4140    2.7910   -2.4460 n         1 MOL     -0.083226
    178 C54        -6.3110    3.0910   -3.5930 c3        1 MOL     -0.313452
    179 H86        -6.4230    4.1710   -3.6930 h1        1 MOL      0.122287
    180 H87        -5.8800    2.6850   -4.5080 h1        1 MOL      0.122287
    181 H88        -7.2880    2.6400   -3.4190 h1        1 MOL      0.122287
    182 H89        -5.4550    1.8370   -2.1130 hn        1 MOL      0.120755
    183 Ca1         1.5380   -1.1810    1.1440 Ca        1 MOL      1.792516
    184 O25        -0.1250   -0.9570    3.5390 oh        1 MOL     -0.771556
    185 H90        -1.0780   -0.9650    3.5600 ho        1 MOL      0.372307
    186 H91         0.1160   -0.1150    3.9090 ho        1 MOL      0.372307
    187 O26         0.1430   -3.3890    1.3880 oh        1 MOL     -0.771556
    188 H92        -0.4980   -3.7770    1.9900 ho        1 MOL      0.372307
    189 H93         0.3430   -4.0780    0.7640 ho        1 MOL      0.372307
@<TRIPOS>BOND
     1    1    2 1   
     2    1    4 1   
     3    1    5 1   
     4    1    6 1   
     5    2    3 2   
     6    2    7 1   
     7    7    8 1   
     8    7   15 1   
     9    8    9 1   
    10    8   11 1   
    11    8   16 1   
    12    9   10 2   
    13    9   19 1   
    14   11   12 1   
    15   11   17 1   
    16   11   18 1   
    17   12   13 1   
    18   12   14 1   
    19   19   20 1   
    20   19   28 1   
    21   20   21 1   
    22   20   23 1   
    23   20   29 1   
    24   21   22 2   
    25   21   41 1   
    26   23   24 1   
    27   23   30 1   
    28   23   31 1   
    29   24   25 1   
    30   24   32 1   
    31   24   33 1   
    32   25   26 1   
    33   25   34 1   
    34   25   35 1   
    35   26   27 1   
    36   26   36 1   
    37   26   37 1   
    38   27   38 1   
    39   27   39 1   
    40   27   40 1   
    41   41   42 1   
    42   41   49 1   
    43   42   43 1   
    44   42   45 1   
    45   42   50 1   
    46   43   44 2   
    47   43   53 1   
    48   45   46 1   
    49   45   51 1   
    50   45   52 1   
    51   46   47 1   
    52   46   48 1   
    53   53   54 1   
    54   53   57 1   
    55   54   55 1   
    56   54   58 1   
    57   54   59 1   
    58   55   56 2   
    59   55   60 1   
    60   60   61 1   
    61   60   68 1   
    62   61   62 1   
    63   61   64 1   
    64   61   69 1   
    65   62   63 2   
    66   62   72 1   
    67   64   65 1   
    68   64   70 1   
    69   64   71 1   
    70   65   66 1   
    71   65   67 1   
    72   72   73 1   
    73   72   76 1   
    74   73   74 1   
    75   73   77 1   
    76   73   78 1   
    77   74   75 2   
    78   74   79 1   
    79   79   80 1   
    80   79   86 1   
    81   80   81 1   
    82   80   83 1   
    83   80   87 1   
    84   81   82 2   
    85   81   93 1   
    86   83   84 1   
    87   83   85 1   
    88   83   88 1   
    89   84   90 1   
    90   84   91 1   
    91   84   92 1   
    92   85   89 1   
    93   93   94 1   
    94   93  101 1   
    95   94   95 1   
    96   94   97 1   
    97   94  102 1   
    98   95   96 2   
    99   95  112 1   
   100   97   98 1   
   101   97   99 1   
   102   97  103 1   
   103   98  100 1   
   104   98  104 1   
   105   98  105 1   
   106   99  106 1   
   107   99  107 1   
   108   99  108 1   
   109  100  109 1   
   110  100  110 1   
   111  100  111 1   
   112  112  113 1   
   113  112  119 1   
   114  113  114 1   
   115  113  116 1   
   116  113  120 1   
   117  114  115 2   
   118  114  126 1   
   119  116  117 1   
   120  116  118 1   
   121  116  121 1   
   122  117  123 1   
   123  117  124 1   
   124  117  125 1   
   125  118  122 1   
   126  126  127 1   
   127  126  133 1   
   128  127  128 1   
   129  127  130 1   
   130  127  134 1   
   131  128  129 2   
   132  128  140 1   
   133  130  131 1   
   134  130  132 1   
   135  130  135 1   
   136  131  137 1   
   137  131  138 1   
   138  131  139 1   
   139  132  136 1   
   140  140  141 1   
   141  140  149 1   
   142  141  142 1   
   143  141  144 1   
   144  141  150 1   
   145  142  143 2   
   146  142  162 1   
   147  144  145 1   
   148  144  151 1   
   149  144  152 1   
   150  145  146 1   
   151  145  153 1   
   152  145  154 1   
   153  146  147 1   
   154  146  155 1   
   155  146  156 1   
   156  147  148 1   
   157  147  157 1   
   158  147  158 1   
   159  148  159 1   
   160  148  160 1   
   161  148  161 1   
   162  162  163 1   
   163  162  171 1   
   164  163  164 1   
   165  163  166 1   
   166  163  172 1   
   167  164  165 2   
   168  164  177 1   
   169  166  167 1   
   170  166  173 1   
   171  166  174 1   
   172  167  168 1   
   173  167  175 1   
   174  167  176 1   
   175  168  169 1   
   176  168  170 1   
   177  177  178 1   
   178  177  182 1   
   179  178  179 1   
   180  178  180 1   
   181  178  181 1   
   182  184  185 1   
   183  184  186 1   
   184  187  188 1   
   185  187  189 1   
@<TRIPOS>SUBSTRUCTURE
     1 MOL         1 TEMP              0 ****  ****    0 ROOT
