@<TRIPOS>MOLECULE
MOL
  189   185     1     0     0
SMALL
resp


@<TRIPOS>ATOM
      1 C1          1.1450   -3.9540    5.9530 c3        1 MOL     -0.576698
      2 C2          1.4490   -3.3190    4.6320 c         1 MOL      0.803290
      3 O1          1.4500   -2.1080    4.5380 o         1 MOL     -0.594510
      4 H1          1.8900   -4.7200    6.1690 hc        1 MOL      0.141871
      5 H2          1.1690   -3.1940    6.7350 hc        1 MOL      0.141871
      6 H3          0.1550   -4.4090    5.9190 hc        1 MOL      0.141871
      7 N1          1.8590   -4.2160    3.7300 n         1 MOL     -0.679792
      8 C3          2.4090   -3.8140    2.4430 c3        1 MOL      0.347634
      9 C4          2.2090   -4.9190    1.4490 c         1 MOL      0.452425
     10 O2          2.4830   -6.0830    1.7380 o         1 MOL     -0.581853
     11 C5          3.8980   -3.4210    2.6970 c3        1 MOL     -0.251662
     12 C6          4.4660   -2.6470    1.5230 c         1 MOL      0.807138
     13 O3          3.6920   -2.3050    0.6310 o         1 MOL     -0.725149
     14 O4          5.6890   -2.3190    1.5010 o         1 MOL     -0.725149
     15 H4          1.9270   -5.1600    4.0550 hn        1 MOL      0.323156
     16 H5          1.7890   -2.9650    2.1430 h1        1 MOL     -0.037913
     17 H6          4.4800   -4.3080    2.9300 hc        1 MOL      0.044473
     18 H7          3.8590   -2.6630    3.4730 hc        1 MOL      0.044473
     19 N2          1.9040   -4.5880    0.1900 n         1 MOL     -0.105390
     20 C7          1.7380   -5.5400   -0.8910 c3        1 MOL     -0.220880
     21 C8          2.5970   -5.1420   -2.0730 c         1 MOL      0.462289
     22 O5          2.7740   -5.8440   -3.0690 o         1 MOL     -0.570913
     23 C9          0.2340   -5.8520   -1.3360 c3        1 MOL      0.276552
     24 C10        -0.3350   -4.6250   -2.0780 c3        1 MOL     -0.038667
     25 C11        -0.6730   -6.3220   -0.2130 c3        1 MOL     -0.238678
     26 C12        -1.7700   -4.9400   -2.6350 c3        1 MOL     -0.215756
     27 H8          1.7210   -3.6210   -0.0350 hn        1 MOL      0.061270
     28 H9          2.0420   -6.5130   -0.5240 h1        1 MOL      0.122308
     29 H10         0.2730   -6.7460   -1.9530 hc        1 MOL     -0.026064
     30 H11         0.2860   -4.4900   -2.9710 hc        1 MOL      0.060611
     31 H12        -0.2930   -3.7030   -1.4920 hc        1 MOL      0.060611
     32 H13        -1.3700   -7.0360   -0.6390 hc        1 MOL      0.043805
     33 H14        -0.0790   -6.8860    0.4980 hc        1 MOL      0.043805
     34 H15        -1.1450   -5.5360    0.3840 hc        1 MOL      0.043805
     35 H16        -2.4290   -5.2560   -1.8290 hc        1 MOL      0.049275
     36 H17        -2.2120   -4.0080   -2.9980 hc        1 MOL      0.049275
     37 H18        -1.7350   -5.7400   -3.3720 hc        1 MOL      0.049275
     38 N3          3.2590   -3.9560   -2.1230 n         1 MOL     -0.318941
     39 C13         4.0040   -3.3580   -3.2790 c3        1 MOL      0.035433
     40 C14         5.2310   -2.5330   -2.9360 c         1 MOL      0.395235
     41 O6          5.8340   -1.9920   -3.8590 o         1 MOL     -0.538736
     42 C15         3.0090   -2.5440   -4.1170 c3        1 MOL     -0.354707
     43 C16         2.3600   -1.3600   -3.3480 c         1 MOL      0.816752
     44 O7          2.8210   -0.9660   -2.2810 o         1 MOL     -0.722398
     45 O8          1.2860   -0.8580   -3.7480 o         1 MOL     -0.722398
     46 H19         3.2640   -3.3530   -1.3090 hn        1 MOL      0.232968
     47 H20         4.4260   -4.1240   -3.9200 h1        1 MOL      0.106014
     48 H21         2.2270   -3.2280   -4.4480 hc        1 MOL      0.097114
     49 H22         3.4510   -2.0400   -4.9680 hc        1 MOL      0.097114
     50 N4          5.5680   -2.4170   -1.6800 n         1 MOL     -0.261516
     51 C17         6.8640   -1.8940   -1.2980 c3        1 MOL     -0.048390
     52 C18         7.1520   -0.5000   -1.7090 c         1 MOL      0.419898
     53 O9          8.3580   -0.1960   -1.7760 o         1 MOL     -0.567712
     54 H23         4.9660   -2.8410   -0.9930 hn        1 MOL      0.183545
     55 H24         7.6230   -2.5250   -1.7610 h1        1 MOL      0.083540
     56 H25         7.0450   -2.0870   -0.2380 h1        1 MOL      0.083540
     57 N5          6.0880    0.3030   -2.1760 n         1 MOL     -0.225904
     58 C19         6.1820    1.7470   -2.6290 c3        1 MOL      0.062264
     59 C20         6.6420    2.6730   -1.5230 c         1 MOL      0.473004
     60 O10         7.1730    3.7100   -1.7850 o         1 MOL     -0.571737
     61 C21         4.7670    2.2760   -3.1200 c3        1 MOL     -0.380129
     62 C22         3.5020    2.1510   -2.2890 c         1 MOL      0.802880
     63 O11         3.5860    1.6790   -1.1200 o         1 MOL     -0.680660
     64 O12         2.4350    2.6040   -2.7210 o         1 MOL     -0.680660
     65 H26         5.1790   -0.1370   -2.2650 hn        1 MOL      0.244227
     66 H27         6.9570    1.8930   -3.3750 h1        1 MOL      0.063300
     67 H28         4.6040    1.7630   -4.0660 hc        1 MOL      0.096345
     68 H29         4.9440    3.3150   -3.3740 hc        1 MOL      0.096345
     69 N6          6.3800    2.3160   -0.2600 n         1 MOL     -0.203225
     70 C23         6.6720    3.1210    0.9300 c3        1 MOL     -0.294339
     71 C24         5.4780    3.9290    1.4790 c         1 MOL      0.552143
     72 O13         5.6970    4.7430    2.3350 o         1 MOL     -0.595061
     73 H30         5.7720    1.5200   -0.1070 hn        1 MOL      0.178978
     74 H31         7.5730    3.7160    0.7840 h1        1 MOL      0.128700
     75 H32         6.9200    2.4250    1.7360 h1        1 MOL      0.128700
     76 N7          4.3210    3.8220    0.8200 n         1 MOL     -0.181186
     77 C25         3.1030    4.4730    1.2510 c3        1 MOL      0.082367
     78 C26         2.0630    3.4430    1.5750 c         1 MOL      0.449369
     79 O14         2.0830    2.3490    1.0310 o         1 MOL     -0.500815
     80 C27         2.6390    5.5130    0.2510 c3        1 MOL      0.039895
     81 C28         3.5680    6.7310   -0.0020 c3        1 MOL     -0.494383
     82 C29         2.8350    7.7490   -0.8450 c         1 MOL      0.769202
     83 N8          2.6140    7.5660   -2.0850 n         1 MOL     -0.831918
     84 O15         2.2740    8.6790   -0.2850 o         1 MOL     -0.621154
     85 H33         4.1410    3.0430    0.1880 hn        1 MOL      0.129673
     86 H34         3.2750    4.9880    2.1920 h1        1 MOL     -0.001509
     87 H35         1.6520    5.8480    0.5630 hc        1 MOL      0.045055
     88 H36         2.4540    4.9940   -0.6950 hc        1 MOL      0.045055
     89 H37         4.4700    6.4210   -0.5330 hc        1 MOL      0.150417
     90 H38         3.9550    7.0900    0.9480 hc        1 MOL      0.150417
     91 H39         2.7180    6.6100   -2.4040 hn        1 MOL      0.378399
     92 H40         1.9930    8.1520   -2.6170 hn        1 MOL      0.378399
     93 N9          1.0930    3.8560    2.3760 n         1 MOL     -0.368278
     94 C30        -0.0240    3.0220    2.8200 c3        1 MOL     -0.188728
     95 C31        -1.2730    3.2170    1.9200 c         1 MOL      0.498551
     96 O16        -1.8390    4.3210    1.8380 o         1 MOL     -0.595646
     97 C32        -0.3510    3.2220    4.2740 c3        1 MOL      0.429774
     98 C33        -1.7130    2.7840    4.6680 c3        1 MOL     -0.407257
     99 C34         0.7240    2.4770    5.0780 c3        1 MOL     -0.407257
    100 H41         1.1990    4.8300    2.6220 hn        1 MOL      0.266790
    101 H42         0.2150    1.9610    2.6900 h1        1 MOL      0.213032
    102 H43        -0.1370    4.2500    4.5520 hc        1 MOL     -0.039357
    103 H44        -1.8620    1.7170    4.5190 hc        1 MOL      0.084712
    104 H45        -1.7720    2.8860    5.7520 hc        1 MOL      0.084712
    105 H46        -2.4230    3.4420    4.1730 hc        1 MOL      0.084712
    106 H47         0.6400    2.7890    6.1210 hc        1 MOL      0.084712
    107 H48         0.5900    1.4030    4.9550 hc        1 MOL      0.084712
    108 H49         1.6690    2.8100    4.6550 hc        1 MOL      0.084712
    109 N10        -1.7230    2.1310    1.2720 n         1 MOL     -0.069745
    110 C35        -2.9260    2.2440    0.3800 c3        1 MOL     -0.016166
    111 C36        -4.1890    1.8020    1.1170 c         1 MOL      0.391404
    112 O17        -4.1520    1.0880    2.0630 o         1 MOL     -0.421598
    113 C37        -2.5840    1.3360   -0.7900 c3        1 MOL      0.138420
    114 C38        -3.5330    1.1710   -1.9170 c         1 MOL      0.308085
    115 N11        -3.0460    0.5380   -2.8830 n         1 MOL     -0.602212
    116 O18        -4.7280    1.5260   -1.9070 o         1 MOL     -0.448561
    117 H50        -1.2990    1.2300    1.4160 hn        1 MOL     -0.098930
    118 H51        -3.0580    3.2460   -0.0200 h1        1 MOL      0.067924
    119 H52        -2.3850    0.3390   -0.4130 hc        1 MOL      0.040662
    120 H53        -1.6720    1.7740   -1.1850 hc        1 MOL      0.040662
    121 H54        -2.1720    0.0380   -2.8440 hn        1 MOL      0.371809
    122 H55        -3.6800    0.4490   -3.6580 hn        1 MOL      0.371809
    123 N12        -5.3670    2.2120    0.5640 n         1 MOL     -0.426719
    124 C39        -6.6140    1.6150    1.0620 c3        1 MOL      0.015479
    125 C40        -6.7740    0.1470    0.7990 c         1 MOL      0.411167
    126 O19        -7.5040   -0.5840    1.5680 o         1 MOL     -0.581143
    127 C41        -7.7420    2.4970    0.5290 c3        1 MOL     -0.026135
    128 C42        -8.0000    2.5150   -0.9800 ca        1 MOL      0.041004
    129 C43        -8.6270    1.4610   -1.6000 ca        1 MOL     -0.194288
    130 C44        -7.6460    3.6740   -1.7260 ca        1 MOL     -0.194288
    131 C45        -8.8540    1.4640   -2.9890 ca        1 MOL     -0.310283
    132 C46        -7.8750    3.6650   -3.1020 ca        1 MOL     -0.310283
    133 C47        -8.4300    2.5360   -3.7720 ca        1 MOL      0.430957
    134 O20        -8.6850    2.5620   -5.0710 oh        1 MOL     -0.493923
    135 H56        -5.4400    2.8240   -0.2310 hn        1 MOL      0.275537
    136 H57        -6.5600    1.6390    2.1530 h1        1 MOL      0.104819
    137 H58        -7.6500    3.5370    0.8660 hc        1 MOL      0.012979
    138 H59        -8.6270    2.1440    1.0590 hc        1 MOL      0.012979
    139 H60        -9.0150    0.6560   -1.0050 ha        1 MOL      0.162630
    140 H61        -7.1400    4.4660   -1.2130 ha        1 MOL      0.162630
    141 H62        -9.4570    0.6150   -3.2920 ha        1 MOL      0.154185
    142 H63        -7.6610    4.5740   -3.6540 ha        1 MOL      0.154185
    143 H64        -9.3350    1.8850   -5.2550 ho        1 MOL      0.363679
    144 N13        -6.0580   -0.4440   -0.1720 n         1 MOL     -0.205772
    145 C48        -5.8760   -1.8850   -0.4060 c3        1 MOL     -0.166049
    146 C49        -5.0640   -2.5110    0.7640 c         1 MOL      0.417910
    147 O21        -4.8430   -3.7520    0.7170 o         1 MOL     -0.550939
    148 C50        -5.1930   -2.1710   -1.6810 c3        1 MOL      0.172865
    149 C51        -6.1630   -1.6740   -2.8150 c3        1 MOL     -0.309349
    150 C52        -5.6000   -1.6980   -4.2250 c         1 MOL      0.751485
    151 O22        -5.8830   -2.5770   -5.0990 o         1 MOL     -0.735362
    152 O23        -4.7930   -0.7730   -4.4900 o         1 MOL     -0.735362
    153 H65        -5.5980    0.1640   -0.8290 hn        1 MOL      0.289080
    154 H66        -6.8490   -2.3700   -0.5030 h1        1 MOL      0.119112
    155 H67        -4.9190   -3.2250   -1.7840 hc        1 MOL      0.022635
    156 H68        -4.2780   -1.5740   -1.7330 hc        1 MOL      0.022635
    157 H69        -6.4780   -0.6620   -2.5880 hc        1 MOL      0.032907
    158 H70        -7.0030   -2.3580   -2.7030 hc        1 MOL      0.032907
    159 N14        -4.5360   -1.8030    1.7450 n         1 MOL     -0.200182
    160 C53        -3.5980   -2.2030    2.7520 c3        1 MOL     -0.167268
    161 C54        -4.1200   -1.9140    4.1830 c         1 MOL      0.462440
    162 O24        -3.5110   -2.2340    5.1880 o         1 MOL     -0.527521
    163 C55        -2.1720   -1.6410    2.5160 c3        1 MOL     -0.009031
    164 C56        -1.5770   -2.0890    1.1990 c3        1 MOL     -0.186026
    165 C57        -0.3350   -1.3210    0.8120 c         1 MOL      0.615351
    166 O25        -0.0460   -0.2160    1.2240 o         1 MOL     -0.639540
    167 O26         0.5640   -1.8230    0.0770 o         1 MOL     -0.639540
    168 H71        -4.8580   -0.8640    1.9500 hn        1 MOL      0.145700
    169 H72        -3.4920   -3.2840    2.6450 h1        1 MOL      0.115413
    170 H73        -1.5360   -1.8600    3.3760 hc        1 MOL      0.100263
    171 H74        -2.2470   -0.5600    2.4390 hc        1 MOL      0.100263
    172 H75        -2.3080   -1.9540    0.4060 hc        1 MOL      0.082988
    173 H76        -1.3580   -3.1570    1.1590 hc        1 MOL      0.082988
    174 N15        -5.2400   -1.2370    4.3490 n         1 MOL     -0.248262
    175 C58        -5.5070   -0.4140    5.4910 c3        1 MOL     -0.149488
    176 H77        -6.1240    0.4340    5.1900 h1        1 MOL      0.074990
    177 H78        -6.0360   -0.9980    6.2440 h1        1 MOL      0.074990
    178 H79        -4.5670   -0.0510    5.9060 h1        1 MOL      0.074990
    179 H80        -5.7640   -1.0030    3.5120 hn        1 MOL      0.219242
    180 Ca1         2.4260   -0.1130    0.2430 Ca        1 MOL      1.657364
    181 O27         4.8440    0.4330    1.4890 oh        1 MOL     -0.887000
    182 H81         4.6290    0.5530    2.4140 ho        1 MOL      0.422122
    183 H82         5.4350   -0.3150    1.4690 ho        1 MOL      0.422122
    184 O28         2.6290   -0.4900    2.8350 oh        1 MOL     -0.887000
    185 H83         1.9380   -0.9320    3.3440 ho        1 MOL      0.422122
    186 H84         3.3600   -0.4280    3.4520 ho        1 MOL      0.422122
    187 O29         0.7560    0.8860   -1.7680 oh        1 MOL     -0.887000
    188 H85         1.1430    0.1410   -2.2250 ho        1 MOL      0.422122
    189 H86         1.3310    1.6250   -1.9900 ho        1 MOL      0.422122
@<TRIPOS>BOND
     1    1    2 1   
     2    1    4 1   
     3    1    5 1   
     4    1    6 1   
     5    2    3 2   
     6    2    7 1   
     7    7    8 1   
     8    7   15 1   
     9    8    9 1   
    10    8   11 1   
    11    8   16 1   
    12    9   10 2   
    13    9   19 1   
    14   11   12 1   
    15   11   17 1   
    16   11   18 1   
    17   12   13 1   
    18   12   14 1   
    19   19   20 1   
    20   19   27 1   
    21   20   21 1   
    22   20   23 1   
    23   20   28 1   
    24   21   22 2   
    25   21   38 1   
    26   23   24 1   
    27   23   25 1   
    28   23   29 1   
    29   24   26 1   
    30   24   30 1   
    31   24   31 1   
    32   25   32 1   
    33   25   33 1   
    34   25   34 1   
    35   26   35 1   
    36   26   36 1   
    37   26   37 1   
    38   38   39 1   
    39   38   46 1   
    40   39   40 1   
    41   39   42 1   
    42   39   47 1   
    43   40   41 2   
    44   40   50 1   
    45   42   43 1   
    46   42   48 1   
    47   42   49 1   
    48   43   44 1   
    49   43   45 1   
    50   50   51 1   
    51   50   54 1   
    52   51   52 1   
    53   51   55 1   
    54   51   56 1   
    55   52   53 2   
    56   52   57 1   
    57   57   58 1   
    58   57   65 1   
    59   58   59 1   
    60   58   61 1   
    61   58   66 1   
    62   59   60 2   
    63   59   69 1   
    64   61   62 1   
    65   61   67 1   
    66   61   68 1   
    67   62   63 1   
    68   62   64 1   
    69   69   70 1   
    70   69   73 1   
    71   70   71 1   
    72   70   74 1   
    73   70   75 1   
    74   71   72 2   
    75   71   76 1   
    76   76   77 1   
    77   76   85 1   
    78   77   78 1   
    79   77   80 1   
    80   77   86 1   
    81   78   79 2   
    82   78   93 1   
    83   80   81 1   
    84   80   87 1   
    85   80   88 1   
    86   81   82 1   
    87   81   89 1   
    88   81   90 1   
    89   82   83 1   
    90   82   84 2   
    91   83   91 1   
    92   83   92 1   
    93   93   94 1   
    94   93  100 1   
    95   94   95 1   
    96   94   97 1   
    97   94  101 1   
    98   95   96 2   
    99   95  109 1   
   100   97   98 1   
   101   97   99 1   
   102   97  102 1   
   103   98  103 1   
   104   98  104 1   
   105   98  105 1   
   106   99  106 1   
   107   99  107 1   
   108   99  108 1   
   109  109  110 1   
   110  109  117 1   
   111  110  111 1   
   112  110  113 1   
   113  110  118 1   
   114  111  112 2   
   115  111  123 1   
   116  113  114 1   
   117  113  119 1   
   118  113  120 1   
   119  114  115 1   
   120  114  116 2   
   121  115  121 1   
   122  115  122 1   
   123  123  124 1   
   124  123  135 1   
   125  124  125 1   
   126  124  127 1   
   127  124  136 1   
   128  125  126 2   
   129  125  144 1   
   130  127  128 1   
   131  127  137 1   
   132  127  138 1   
   133  128  129 ar  
   134  128  130 ar  
   135  129  131 ar  
   136  129  139 1   
   137  130  132 ar  
   138  130  140 1   
   139  131  133 ar  
   140  131  141 1   
   141  132  133 ar  
   142  132  142 1   
   143  133  134 1   
   144  134  143 1   
   145  144  145 1   
   146  144  153 1   
   147  145  146 1   
   148  145  148 1   
   149  145  154 1   
   150  146  147 2   
   151  146  159 1   
   152  148  149 1   
   153  148  155 1   
   154  148  156 1   
   155  149  150 1   
   156  149  157 1   
   157  149  158 1   
   158  150  151 1   
   159  150  152 1   
   160  159  160 1   
   161  159  168 1   
   162  160  161 1   
   163  160  163 1   
   164  160  169 1   
   165  161  162 2   
   166  161  174 1   
   167  163  164 1   
   168  163  170 1   
   169  163  171 1   
   170  164  165 1   
   171  164  172 1   
   172  164  173 1   
   173  165  166 1   
   174  165  167 1   
   175  174  175 1   
   176  174  179 1   
   177  175  176 1   
   178  175  177 1   
   179  175  178 1   
   180  181  182 1   
   181  181  183 1   
   182  184  185 1   
   183  184  186 1   
   184  187  188 1   
   185  187  189 1   
@<TRIPOS>SUBSTRUCTURE
     1 MOL         1 TEMP              0 ****  ****    0 ROOT
