@<TRIPOS>MOLECULE
MOL
  175   173     1     0     0
SMALL
resp


@<TRIPOS>ATOM
      1 C1          1.1510    3.8710    5.4250 c3        1 MOL     -0.311495
      2 C2          0.4180    3.7820    4.0040 c         1 MOL      0.630872
      3 O1          1.0220    3.8730    2.9230 o         1 MOL     -0.512402
      4 H1          2.2040    3.6190    5.3070 hc        1 MOL      0.082640
      5 H2          1.0630    4.8840    5.8180 hc        1 MOL      0.082640
      6 H3          0.6860    3.1700    6.1190 hc        1 MOL      0.082640
      7 N1         -0.8910    3.5020    3.9530 n         1 MOL     -0.617680
      8 C3         -1.6370    3.2280    2.6690 c3        1 MOL      0.047172
      9 C4         -1.6490    4.4710    1.7900 c         1 MOL      0.697905
     10 O2         -1.6890    5.5960    2.2960 o         1 MOL     -0.588137
     11 C5         -3.1020    2.7870    2.9560 c3        1 MOL     -0.152485
     12 C6         -3.8520    2.6870    1.6630 c         1 MOL      0.545609
     13 O3         -4.9640    3.2430    1.6410 o         1 MOL     -0.572223
     14 O4         -3.3970    1.8970    0.7180 o         1 MOL     -0.572223
     15 H4         -1.3570    3.3830    4.8420 hn        1 MOL      0.321067
     16 H5         -1.1870    2.4230    2.0820 h1        1 MOL      0.100660
     17 H6         -3.5580    3.4970    3.6410 hc        1 MOL      0.034101
     18 H7         -3.0420    1.8500    3.5290 hc        1 MOL      0.034101
     19 N2         -1.7710    4.3380    0.4500 n         1 MOL     -0.572301
     20 C7         -2.0480    5.3770   -0.5270 c3        1 MOL      0.310501
     21 C8         -2.9670    4.9340   -1.6740 c         1 MOL      0.420472
     22 O5         -3.2290    5.6910   -2.5750 o         1 MOL     -0.576373
     23 C9         -0.7160    5.9170   -1.0910 c3        1 MOL     -0.240172
     24 H8         -1.7870    3.3870    0.1080 hn        1 MOL      0.314182
     25 H9         -2.5590    6.2440   -0.1070 h1        1 MOL      0.013759
     26 H10        -0.1210    6.1200   -0.2040 hc        1 MOL      0.055726
     27 H11        -0.1840    5.1470   -1.6470 hc        1 MOL      0.055726
     28 H12        -0.7720    6.8000   -1.7250 hc        1 MOL      0.055726
     29 N3         -3.5970    3.7330   -1.6580 n         1 MOL     -0.108727
     30 C10        -4.7290    3.4380   -2.5820 c3        1 MOL      0.009317
     31 C11        -6.0350    2.7080   -2.0610 c         1 MOL      0.311551
     32 O6         -7.0220    2.5600   -2.8490 o         1 MOL     -0.535162
     33 C12        -4.1950    2.6560   -3.7640 c3        1 MOL     -0.088314
     34 C13        -3.5670    1.3240   -3.4850 c         1 MOL      0.669455
     35 O7         -3.4600    0.9910   -2.2460 o         1 MOL     -0.662204
     36 O8         -3.1480    0.7050   -4.4560 o         1 MOL     -0.662204
     37 H13        -3.4240    3.0240   -0.9670 hn        1 MOL     -0.026239
     38 H14        -5.0730    4.3680   -3.0160 h1        1 MOL      0.087979
     39 H15        -3.4120    3.3310   -4.1020 hc        1 MOL      0.022311
     40 H16        -4.9470    2.6410   -4.5500 hc        1 MOL      0.022311
     41 N4         -6.1250    2.3130   -0.7820 n         1 MOL     -0.089191
     42 C14        -7.2400    1.5690   -0.1740 c3        1 MOL     -0.076955
     43 C15        -7.5070    0.1930   -0.7680 c         1 MOL      0.436477
     44 O9         -8.6220   -0.2780   -0.6890 o         1 MOL     -0.591447
     45 H17        -5.3390    2.5880   -0.2040 hn        1 MOL      0.078549
     46 H18        -8.1440    2.1640   -0.0360 h1        1 MOL      0.076388
     47 H19        -6.9710    1.3920    0.8700 h1        1 MOL      0.076388
     48 N5         -6.4960   -0.5340   -1.2400 n         1 MOL     -0.023584
     49 C16        -6.6420   -1.8990   -1.7180 c3        1 MOL     -0.212849
     50 C17        -6.5420   -3.0120   -0.6710 c         1 MOL      0.534453
     51 O10        -6.3100   -4.1460   -1.0530 o         1 MOL     -0.552649
     52 C18        -5.5880   -2.0420   -2.8740 c3        1 MOL     -0.025805
     53 C19        -4.0940   -2.1130   -2.3950 c         1 MOL      0.460578
     54 N6         -3.1820   -2.4030   -3.2950 n         1 MOL     -0.550603
     55 O11        -3.6960   -1.8960   -1.2440 o         1 MOL     -0.635456
     56 H20        -5.5630   -0.1490   -1.2910 hn        1 MOL      0.108334
     57 H21        -7.6510   -2.0250   -2.1130 h1        1 MOL      0.127500
     58 H22        -5.6730   -1.1820   -3.5310 hc        1 MOL      0.048263
     59 H23        -5.7730   -2.9330   -3.4540 hc        1 MOL      0.048263
     60 H24        -3.4350   -2.6230   -4.2500 hn        1 MOL      0.324551
     61 H25        -2.2200   -2.4810   -2.9990 hn        1 MOL      0.324551
     62 N7         -6.5090   -2.5890    0.5440 n         1 MOL     -0.299533
     63 C20        -6.3710   -3.3640    1.8540 c3        1 MOL     -0.132849
     64 C21        -5.1180   -4.2760    2.0210 c         1 MOL      0.463640
     65 O12        -5.2280   -5.3070    2.6740 o         1 MOL     -0.556297
     66 H26        -6.6280   -1.5910    0.6630 hn        1 MOL      0.256015
     67 H27        -7.3130   -3.9150    1.9320 h1        1 MOL      0.090424
     68 H28        -6.4110   -2.6490    2.6710 h1        1 MOL      0.090424
     69 N8         -4.0560   -3.9310    1.3230 n         1 MOL     -0.109805
     70 C22        -2.6840   -4.4720    1.4180 c3        1 MOL     -0.250738
     71 C23        -1.6310   -3.3360    1.5060 c         1 MOL      0.528361
     72 O13        -1.7550   -2.3870    0.7960 o         1 MOL     -0.464016
     73 C24        -2.4840   -5.4330    0.2370 c3        1 MOL      0.495967
     74 C25        -3.4260   -6.6280    0.0860 c3        1 MOL     -0.478815
     75 O14        -2.3880   -4.8770   -1.0360 oh        1 MOL     -0.602935
     76 H29        -4.2530   -3.1410    0.7250 hn        1 MOL      0.194470
     77 H30        -2.5360   -5.0030    2.3610 h1        1 MOL      0.080874
     78 H31        -1.5100   -5.8950    0.3890 h1        1 MOL     -0.011501
     79 H32        -3.2550   -4.8730   -1.4450 ho        1 MOL      0.378633
     80 H33        -3.4670   -7.2050    1.0070 hc        1 MOL      0.116590
     81 H34        -4.4660   -6.3820   -0.1310 hc        1 MOL      0.116590
     82 H35        -3.0280   -7.2730   -0.7040 hc        1 MOL      0.116590
     83 N9         -0.4600   -3.6090    2.1150 n         1 MOL     -0.397659
     84 C26         0.7480   -2.7470    2.0390 c3        1 MOL     -0.020505
     85 C27         1.5290   -3.0830    0.7250 c         1 MOL      0.667627
     86 O15         2.0640   -4.1570    0.5730 o         1 MOL     -0.625541
     87 C28         1.7120   -2.7190    3.3320 c3        1 MOL      0.033322
     88 C29         0.9640   -1.8790    4.3570 c3        1 MOL      0.135118
     89 C30         3.0550   -2.0130    3.2000 c3        1 MOL     -0.088624
     90 C31         1.5100   -1.9770    5.7980 c3        1 MOL     -0.134191
     91 H36        -0.2870   -4.5180    2.5220 hn        1 MOL      0.268371
     92 H37         0.4160   -1.7120    1.9710 h1        1 MOL      0.008006
     93 H38         1.7770   -3.7810    3.5880 hc        1 MOL      0.020270
     94 H39        -0.0260   -2.3190    4.4420 hc        1 MOL     -0.043493
     95 H40         0.8700   -0.8210    4.1080 hc        1 MOL     -0.043493
     96 H41         3.0410   -0.9390    3.0220 hc        1 MOL      0.006590
     97 H42         3.6760   -2.1860    4.0820 hc        1 MOL      0.006590
     98 H43         3.6370   -2.4740    2.3990 hc        1 MOL      0.006590
     99 H44         2.4620   -1.4530    5.7170 hc        1 MOL      0.018347
    100 H45         0.9320   -1.4820    6.5750 hc        1 MOL      0.018347
    101 H46         1.6790   -3.0070    6.1200 hc        1 MOL      0.018347
    102 N10         1.6490   -2.0570   -0.0650 n         1 MOL     -0.190457
    103 C32         2.5300   -2.0480   -1.2680 c3        1 MOL     -0.056072
    104 C33         4.0090   -1.8680   -0.7800 c         1 MOL      0.444825
    105 O16         4.3160   -1.3970    0.2920 o         1 MOL     -0.382009
    106 C34         2.0860   -0.9170   -2.2720 c3        1 MOL     -0.296224
    107 C35         0.5990   -1.0830   -2.5480 c         1 MOL      0.805327
    108 O17        -0.2780   -0.4180   -2.0110 o         1 MOL     -0.705754
    109 O18         0.2880   -1.9050   -3.4690 o         1 MOL     -0.705754
    110 H47         1.1900   -1.1830    0.1620 hn        1 MOL     -0.028616
    111 H48         2.4340   -3.0340   -1.7100 h1        1 MOL      0.089750
    112 H49         2.6860   -1.0520   -3.1640 hc        1 MOL      0.095020
    113 H50         2.2480    0.0250   -1.7480 hc        1 MOL      0.095020
    114 N11         4.9640   -1.9920   -1.6650 n         1 MOL     -0.524802
    115 C36         6.3560   -1.6360   -1.5240 c3        1 MOL      0.392197
    116 C37         6.6720   -0.1420   -1.1730 c         1 MOL      0.281392
    117 O19         7.4950    0.0540   -0.2590 o         1 MOL     -0.472651
    118 C38         7.1780   -2.1200   -2.7190 c3        1 MOL     -0.343044
    119 C39         8.6530   -2.0560   -2.3730 ca        1 MOL      0.288138
    120 C40         9.2640   -3.0250   -1.5360 ca        1 MOL     -0.329771
    121 C41         9.3800   -0.9550   -2.7780 ca        1 MOL     -0.329771
    122 C42        10.5530   -2.7660   -1.0330 ca        1 MOL      0.037728
    123 C43        10.6400   -0.7260   -2.3110 ca        1 MOL      0.037728
    124 C44        11.3060   -1.6440   -1.4760 ca        1 MOL     -0.270644
    125 H51         4.7560   -2.4450   -2.5490 hn        1 MOL      0.290331
    126 H52         6.6990   -2.1500   -0.6230 h1        1 MOL      0.021517
    127 H53         7.0210   -1.4710   -3.5840 hc        1 MOL      0.089075
    128 H54         6.8610   -3.1500   -2.8590 hc        1 MOL      0.089075
    129 H55         8.6500   -3.8190   -1.1190 ha        1 MOL      0.153229
    130 H56         8.9200   -0.1020   -3.2510 ha        1 MOL      0.153229
    131 H57        10.9040   -3.4180   -0.2400 ha        1 MOL      0.081035
    132 H58        11.1340    0.1990   -2.5890 ha        1 MOL      0.081035
    133 H59        12.2390   -1.3550   -1.0140 ha        1 MOL      0.138575
    134 N12         6.1370    0.9110   -1.8860 n         1 MOL     -0.007412
    135 C45         6.4780    2.3080   -1.5280 c3        1 MOL     -0.135484
    136 C46         5.8530    2.6260   -0.2060 c         1 MOL      0.398950
    137 O20         6.3550    3.5200    0.4750 o         1 MOL     -0.505761
    138 C47         5.9710    3.1470   -2.7240 c3        1 MOL     -0.070211
    139 C48         4.8170    2.3360   -3.3450 c3        1 MOL     -0.086501
    140 C49         5.2580    0.8340   -3.1240 c3        1 MOL      0.017264
    141 H60         7.5470    2.4590   -1.4580 h1        1 MOL      0.105120
    142 H61         5.5760    4.0810   -2.3150 hc        1 MOL      0.054158
    143 H62         6.7220    3.3520   -3.4920 hc        1 MOL      0.054158
    144 H63         4.0220    2.4350   -2.6040 hc        1 MOL      0.060909
    145 H64         4.6730    2.6790   -4.3660 hc        1 MOL      0.060909
    146 H65         4.4110    0.1660   -3.0300 h1        1 MOL      0.011710
    147 H66         5.9240    0.4480   -3.9040 h1        1 MOL      0.011710
    148 N13         4.8020    1.8830    0.2610 n         1 MOL      0.018535
    149 C50         4.1980    2.0330    1.5910 c3        1 MOL     -0.139750
    150 C51         5.0030    1.3640    2.7410 c         1 MOL      0.364165
    151 O21         5.2550    1.9440    3.8040 o         1 MOL     -0.552200
    152 C52         2.7750    1.4410    1.4910 c3        1 MOL     -0.068884
    153 C53         1.8510    2.1070    0.4630 c3        1 MOL     -0.119725
    154 C54         0.4840    1.4050    0.3020 c         1 MOL      0.573672
    155 O22         0.3280    0.2470    0.8450 o         1 MOL     -0.639795
    156 O23        -0.4960    1.9250   -0.3060 o         1 MOL     -0.639795
    157 H67         4.2750    1.2510   -0.3310 hn        1 MOL      0.089607
    158 H68         4.0620    3.0860    1.8470 h1        1 MOL      0.091496
    159 H69         2.2970    1.2880    2.4570 hc        1 MOL      0.119169
    160 H70         2.9970    0.4890    0.9950 hc        1 MOL      0.119169
    161 H71         2.3700    2.2360   -0.4870 hc        1 MOL      0.046196
    162 H72         1.7700    3.1330    0.8230 hc        1 MOL      0.046196
    163 N14         5.6220    0.2570    2.4720 n         1 MOL      0.092214
    164 C55         6.6310   -0.3420    3.3060 c3        1 MOL     -0.117444
    165 H73         7.5790   -0.3670    2.7690 h1        1 MOL      0.049251
    166 H74         6.7460    0.2450    4.2170 h1        1 MOL      0.049251
    167 H75         6.3330   -1.3590    3.5630 h1        1 MOL      0.049251
    168 H76         5.5480   -0.0550    1.5140 hn        1 MOL     -0.007313
    169 Ca1        -2.1500   -0.0740   -0.3190 Ca        1 MOL      1.692188
    170 O24        -4.4280   -0.7260    1.6290 oh        1 MOL     -0.858388
    171 H77        -3.6020   -0.5350    2.0620 ho        1 MOL      0.407800
    172 H78        -5.0840   -0.2560    2.1450 ho        1 MOL      0.407800
    173 O25        -1.6390   -0.1030    2.5220 oh        1 MOL     -0.858388
    174 H79        -0.7370    0.0430    2.2420 ho        1 MOL      0.407800
    175 H80        -1.6900    0.2930    3.3900 ho        1 MOL      0.407800
@<TRIPOS>BOND
     1    1    2 1   
     2    1    4 1   
     3    1    5 1   
     4    1    6 1   
     5    2    3 2   
     6    2    7 1   
     7    7    8 1   
     8    7   15 1   
     9    8    9 1   
    10    8   11 1   
    11    8   16 1   
    12    9   10 2   
    13    9   19 1   
    14   11   12 1   
    15   11   17 1   
    16   11   18 1   
    17   12   13 1   
    18   12   14 1   
    19   19   20 1   
    20   19   24 1   
    21   20   21 1   
    22   20   23 1   
    23   20   25 1   
    24   21   22 2   
    25   21   29 1   
    26   23   26 1   
    27   23   27 1   
    28   23   28 1   
    29   29   30 1   
    30   29   37 1   
    31   30   31 1   
    32   30   33 1   
    33   30   38 1   
    34   31   32 2   
    35   31   41 1   
    36   33   34 1   
    37   33   39 1   
    38   33   40 1   
    39   34   35 1   
    40   34   36 1   
    41   41   42 1   
    42   41   45 1   
    43   42   43 1   
    44   42   46 1   
    45   42   47 1   
    46   43   44 2   
    47   43   48 1   
    48   48   49 1   
    49   48   56 1   
    50   49   50 1   
    51   49   52 1   
    52   49   57 1   
    53   50   51 2   
    54   50   62 1   
    55   52   53 1   
    56   52   58 1   
    57   52   59 1   
    58   53   54 1   
    59   53   55 2   
    60   54   60 1   
    61   54   61 1   
    62   62   63 1   
    63   62   66 1   
    64   63   64 1   
    65   63   67 1   
    66   63   68 1   
    67   64   65 2   
    68   64   69 1   
    69   69   70 1   
    70   69   76 1   
    71   70   71 1   
    72   70   73 1   
    73   70   77 1   
    74   71   72 2   
    75   71   83 1   
    76   73   74 1   
    77   73   75 1   
    78   73   78 1   
    79   74   80 1   
    80   74   81 1   
    81   74   82 1   
    82   75   79 1   
    83   83   84 1   
    84   83   91 1   
    85   84   85 1   
    86   84   87 1   
    87   84   92 1   
    88   85   86 2   
    89   85  102 1   
    90   87   88 1   
    91   87   89 1   
    92   87   93 1   
    93   88   90 1   
    94   88   94 1   
    95   88   95 1   
    96   89   96 1   
    97   89   97 1   
    98   89   98 1   
    99   90   99 1   
   100   90  100 1   
   101   90  101 1   
   102  102  103 1   
   103  102  110 1   
   104  103  104 1   
   105  103  106 1   
   106  103  111 1   
   107  104  105 2   
   108  104  114 1   
   109  106  107 1   
   110  106  112 1   
   111  106  113 1   
   112  107  108 1   
   113  107  109 1   
   114  114  115 1   
   115  114  125 1   
   116  115  116 1   
   117  115  118 1   
   118  115  126 1   
   119  116  117 2   
   120  116  134 1   
   121  118  119 1   
   122  118  127 1   
   123  118  128 1   
   124  119  120 ar  
   125  119  121 ar  
   126  120  122 ar  
   127  120  129 1   
   128  121  123 ar  
   129  121  130 1   
   130  122  124 ar  
   131  122  131 1   
   132  123  124 ar  
   133  123  132 1   
   134  124  133 1   
   135  134  135 1   
   136  134  140 1   
   137  135  136 1   
   138  135  138 1   
   139  135  141 1   
   140  136  137 2   
   141  136  148 1   
   142  138  139 1   
   143  138  142 1   
   144  138  143 1   
   145  139  140 1   
   146  139  144 1   
   147  139  145 1   
   148  140  146 1   
   149  140  147 1   
   150  148  149 1   
   151  148  157 1   
   152  149  150 1   
   153  149  152 1   
   154  149  158 1   
   155  150  151 2   
   156  150  163 1   
   157  152  153 1   
   158  152  159 1   
   159  152  160 1   
   160  153  154 1   
   161  153  161 1   
   162  153  162 1   
   163  154  155 1   
   164  154  156 1   
   165  163  164 1   
   166  163  168 1   
   167  164  165 1   
   168  164  166 1   
   169  164  167 1   
   170  170  171 1   
   171  170  172 1   
   172  173  174 1   
   173  173  175 1   
@<TRIPOS>SUBSTRUCTURE
     1 MOL         1 TEMP              0 ****  ****    0 ROOT
