@<TRIPOS>MOLECULE
MOL
  189   185     1     0     0
SMALL
resp


@<TRIPOS>ATOM
      1 C1         -0.2070   -4.0220    5.8260 c3        1 MOL     -0.299754
      2 C2          0.6800   -3.4590    4.6960 c         1 MOL      0.683184
      3 O1          0.7950   -2.2480    4.5650 o         1 MOL     -0.585869
      4 H1         -0.4430   -3.2270    6.5320 hc        1 MOL      0.081247
      5 H2         -1.1300   -4.4160    5.4010 hc        1 MOL      0.081247
      6 H3          0.3260   -4.8210    6.3430 hc        1 MOL      0.081247
      7 N1          1.1880   -4.3270    3.7880 n         1 MOL     -0.576162
      8 C3          1.9320   -4.0960    2.5900 c3        1 MOL      0.426080
      9 C4          1.7140   -5.2120    1.5990 c         1 MOL      0.467125
     10 O2          1.6090   -6.3950    1.9170 o         1 MOL     -0.572422
     11 C5          3.3950   -3.7290    2.9280 c3        1 MOL     -0.454989
     12 C6          4.0910   -3.2640    1.6180 c         1 MOL      0.831289
     13 O3          5.3100   -3.2500    1.5220 o         1 MOL     -0.717063
     14 O4          3.4670   -2.7010    0.6950 o         1 MOL     -0.717063
     15 H4          1.1400   -5.2930    4.0590 hn        1 MOL      0.270776
     16 H5          1.5070   -3.1710    2.2150 h1        1 MOL     -0.147735
     17 H6          3.9850   -4.6140    3.1840 hc        1 MOL      0.101287
     18 H7          3.4720   -2.8980    3.6220 hc        1 MOL      0.101287
     19 N2          1.5810   -4.7730    0.3160 n         1 MOL     -0.315637
     20 C7          1.2970   -5.6210   -0.8540 c3        1 MOL     -0.090651
     21 C8          2.3310   -5.3990   -1.9840 c         1 MOL      0.548530
     22 O5          2.4630   -6.2710   -2.8110 o         1 MOL     -0.573037
     23 C9         -0.1520   -5.2930   -1.3400 c3        1 MOL      0.395263
     24 C10        -1.1440   -5.4900   -0.1940 c3        1 MOL     -0.151266
     25 C11        -0.6770   -6.2390   -2.4970 c3        1 MOL     -0.422495
     26 C12        -2.5810   -5.2610   -0.5670 c3        1 MOL     -0.131984
     27 H8          1.7550   -3.7840    0.1970 hn        1 MOL      0.263327
     28 H9          1.3040   -6.6500   -0.4950 h1        1 MOL      0.070024
     29 H10        -0.0820   -4.2480   -1.6500 hc        1 MOL     -0.048184
     30 H11        -0.9560   -4.8600    0.6800 hc        1 MOL      0.034717
     31 H12        -1.0390   -6.5080    0.1900 hc        1 MOL      0.034717
     32 H13        -1.6320   -5.8420   -2.8370 hc        1 MOL      0.090832
     33 H14         0.0400   -6.1860   -3.3160 hc        1 MOL      0.090832
     34 H15        -0.7860   -7.2760   -2.1790 hc        1 MOL      0.090832
     35 H16        -3.1860   -5.0450    0.3140 hc        1 MOL      0.044641
     36 H17        -2.5690   -4.3900   -1.2200 hc        1 MOL      0.044641
     37 H18        -3.0430   -6.0150   -1.1970 hc        1 MOL      0.044641
     38 N3          3.0020   -4.2280   -2.1270 n         1 MOL     -0.322293
     39 C13         3.5750   -3.6400   -3.2470 c3        1 MOL      0.106637
     40 C14         4.9370   -3.0570   -3.0420 c         1 MOL      0.412213
     41 O6          5.5840   -2.7370   -4.0320 o         1 MOL     -0.568197
     42 C15         2.6290   -2.6800   -3.8750 c3        1 MOL     -0.164021
     43 C16         2.2030   -1.5750   -2.9500 c         1 MOL      0.795104
     44 O7          2.9730   -1.2160   -1.9820 o         1 MOL     -0.709072
     45 O8          1.2740   -0.8110   -3.2700 o         1 MOL     -0.709072
     46 H19         3.1560   -3.6630   -1.3130 hn        1 MOL      0.096252
     47 H20         3.6620   -4.4620   -3.9680 h1        1 MOL      0.060336
     48 H21         1.7320   -3.2500   -4.1090 hc        1 MOL      0.038719
     49 H22         2.9370   -2.2690   -4.8480 hc        1 MOL      0.038719
     50 N4          5.4300   -2.8770   -1.8350 n         1 MOL     -0.311736
     51 C17         6.8780   -2.5600   -1.5910 c3        1 MOL     -0.036974
     52 C18         7.4880   -1.1940   -1.9830 c         1 MOL      0.348109
     53 O9          8.7080   -1.0120   -2.0850 o         1 MOL     -0.584149
     54 H23         4.8680   -3.0380   -1.0030 hn        1 MOL      0.232096
     55 H24         7.5040   -3.3660   -1.9750 h1        1 MOL      0.084135
     56 H25         7.1920   -2.7470   -0.5630 h1        1 MOL      0.084135
     57 N5          6.6400   -0.2560   -2.2280 n         1 MOL     -0.095132
     58 C19         6.9360    1.1690   -2.4900 c3        1 MOL     -0.032943
     59 C20         7.3170    2.1610   -1.4110 c         1 MOL      0.446241
     60 O10         8.1740    3.0110   -1.6440 o         1 MOL     -0.555693
     61 C21         5.6230    1.6520   -3.1480 c3        1 MOL     -0.296739
     62 C22         4.2840    1.4990   -2.4590 c         1 MOL      0.774795
     63 O11         4.1420    1.2010   -1.1950 o         1 MOL     -0.696745
     64 O12         3.2350    1.9430   -3.0400 o         1 MOL     -0.696745
     65 H26         5.6830   -0.5630   -2.1200 hn        1 MOL      0.240606
     66 H27         7.7280    1.2380   -3.2280 h1        1 MOL      0.106005
     67 H28         5.5570    1.0910   -4.0810 hc        1 MOL      0.075546
     68 H29         5.7480    2.6830   -3.4720 hc        1 MOL      0.075546
     69 N6          6.8520    2.0120   -0.1300 n         1 MOL     -0.081997
     70 C23         7.1760    2.8710    0.9810 c3        1 MOL     -0.183326
     71 C24         6.0010    3.7410    1.3710 c         1 MOL      0.618912
     72 O13         6.1940    4.7360    2.0560 o         1 MOL     -0.599948
     73 H30         6.3250    1.1630    0.0590 hn        1 MOL      0.115315
     74 H31         8.0210    3.5050    0.7030 h1        1 MOL      0.080102
     75 H32         7.4080    2.2210    1.8340 h1        1 MOL      0.080102
     76 N7          4.7170    3.4300    0.9510 n         1 MOL     -0.419851
     77 C25         3.5910    4.1610    1.4510 c3        1 MOL      0.142840
     78 C26         2.4930    3.1630    1.8330 c         1 MOL      0.486959
     79 O14         2.6210    1.9600    1.6670 o         1 MOL     -0.532133
     80 C27         3.1440    5.2410    0.4340 c3        1 MOL      0.049383
     81 C28         4.2480    6.2750    0.1530 c3        1 MOL     -0.290662
     82 C29         3.6830    7.5160   -0.4880 c         1 MOL      0.729315
     83 N8          4.1960    7.9700   -1.5980 n         1 MOL     -0.841152
     84 O15         2.8900    8.2620    0.0660 o         1 MOL     -0.596598
     85 H33         4.5780    2.6740    0.2950 hn        1 MOL      0.175455
     86 H34         3.8530    4.5450    2.4360 h1        1 MOL      0.032483
     87 H35         2.2760    5.8000    0.7860 hc        1 MOL      0.024834
     88 H36         2.9050    4.6470   -0.4550 hc        1 MOL      0.024834
     89 H37         5.0900    5.9130   -0.4250 hc        1 MOL      0.099195
     90 H38         4.5220    6.6110    1.1490 hc        1 MOL      0.099195
     91 H39         4.6670    7.4310   -2.3100 hn        1 MOL      0.359897
     92 H40         4.0970    8.9630   -1.7690 hn        1 MOL      0.359897
     93 N9          1.3700    3.7280    2.3520 n         1 MOL     -0.502027
     94 C30         0.0450    3.1120    2.4640 c3        1 MOL     -0.001644
     95 C31        -0.8220    3.4410    1.2040 c         1 MOL      0.441556
     96 O16        -1.1130    4.5990    0.8630 o         1 MOL     -0.569516
     97 C32        -0.5740    3.7540    3.7180 c3        1 MOL      0.478753
     98 C33        -1.8520    3.0340    4.0930 c3        1 MOL     -0.389508
     99 C34         0.3230    3.6330    4.8900 c3        1 MOL     -0.389508
    100 H41         1.4610    4.6510    2.7500 hn        1 MOL      0.267022
    101 H42         0.0340    2.0420    2.6970 h1        1 MOL      0.116006
    102 H43        -0.8420    4.8100    3.6110 hc        1 MOL     -0.078712
    103 H44        -2.5480    3.1970    3.2700 hc        1 MOL      0.071593
    104 H45        -1.6020    1.9840    4.2690 hc        1 MOL      0.071593
    105 H46        -2.3140    3.5060    4.9610 hc        1 MOL      0.071593
    106 H47         1.1830    4.2910    4.9380 hc        1 MOL      0.071593
    107 H48        -0.1840    3.8610    5.8280 hc        1 MOL      0.071593
    108 H49         0.5420    2.5580    4.9050 hc        1 MOL      0.071593
    109 N10        -1.3020    2.3740    0.5410 n         1 MOL     -0.255450
    110 C35        -2.4330    2.4790   -0.3530 c3        1 MOL      0.018110
    111 C36        -3.7580    2.4590    0.4490 c         1 MOL      0.325808
    112 O17        -3.7740    1.8400    1.5150 o         1 MOL     -0.350734
    113 C37        -2.5020    1.3160   -1.3700 c3        1 MOL     -0.479778
    114 C38        -3.5660    1.4680   -2.5130 c         1 MOL      0.719718
    115 N11        -3.6740    2.5800   -3.2720 n         1 MOL     -0.756590
    116 O18        -4.3100    0.5350   -2.8320 o         1 MOL     -0.527527
    117 H50        -1.0220    1.4410    0.8010 hn        1 MOL      0.365595
    118 H51        -2.3850    3.4600   -0.8140 h1        1 MOL      0.085824
    119 H52        -2.6540    0.3760   -0.8460 hc        1 MOL      0.171297
    120 H53        -1.5570    1.1460   -1.8850 hc        1 MOL      0.171297
    121 H54        -2.9340    3.2640   -3.1680 hn        1 MOL      0.343216
    122 H55        -4.1960    2.5260   -4.1270 hn        1 MOL      0.343216
    123 N12        -4.8620    2.8760   -0.1110 n         1 MOL     -0.261473
    124 C39        -6.2580    2.4480    0.4070 c3        1 MOL      0.024936
    125 C40        -6.5690    1.0090    0.6950 c         1 MOL      0.363246
    126 O19        -7.2340    0.7560    1.7050 o         1 MOL     -0.566508
    127 C41        -7.4700    3.1510   -0.3250 c3        1 MOL     -0.320373
    128 C42        -7.3840    2.8660   -1.8490 ca        1 MOL      0.061099
    129 C43        -6.8330    3.8320   -2.7100 ca        1 MOL     -0.093586
    130 C44        -8.0390    1.8090   -2.4130 ca        1 MOL     -0.093586
    131 C45        -6.8060    3.6770   -4.1590 ca        1 MOL     -0.378250
    132 C46        -8.0370    1.6260   -3.8300 ca        1 MOL     -0.378250
    133 C47        -7.4430    2.5730   -4.7310 ca        1 MOL      0.475987
    134 O20        -7.6820    2.4510   -6.0680 oh        1 MOL     -0.582331
    135 H56        -4.7960    3.3900   -0.9790 hn        1 MOL      0.184033
    136 H57        -6.2560    2.8430    1.4200 h1        1 MOL      0.076096
    137 H58        -7.7020    4.2140   -0.2070 hc        1 MOL      0.135633
    138 H59        -8.4250    2.7120   -0.0470 hc        1 MOL      0.135633
    139 H60        -6.4250    4.7520   -2.3190 ha        1 MOL      0.100265
    140 H61        -8.4290    1.0690   -1.7310 ha        1 MOL      0.100265
    141 H62        -6.3640    4.5120   -4.6770 ha        1 MOL      0.167441
    142 H63        -8.7140    0.8810   -4.2260 ha        1 MOL      0.167441
    143 H64        -8.1090    1.6040   -6.2370 ho        1 MOL      0.414089
    144 N13        -6.1230    0.0700   -0.1030 n         1 MOL      0.035528
    145 C48        -6.3700   -1.3730    0.0470 c3        1 MOL     -0.087336
    146 C49        -5.5140   -1.9590    1.2070 c         1 MOL      0.318430
    147 O21        -5.8060   -3.0610    1.7110 o         1 MOL     -0.486508
    148 C50        -5.9710   -2.0540   -1.2120 c3        1 MOL      0.072417
    149 C51        -6.9920   -1.9830   -2.3680 c3        1 MOL     -0.054044
    150 C52        -8.3100   -2.5480   -1.9940 c         1 MOL      0.679428
    151 O22        -8.4560   -3.8000   -1.8340 o         1 MOL     -0.727424
    152 O23        -9.2460   -1.7570   -1.9630 o         1 MOL     -0.727424
    153 H65        -5.4890    0.3200   -0.8490 hn        1 MOL      0.218261
    154 H66        -7.4470   -1.4760    0.2050 h1        1 MOL      0.134354
    155 H67        -5.9420   -3.0980   -0.8990 hc        1 MOL     -0.034716
    156 H68        -5.0550   -1.6520   -1.6230 hc        1 MOL     -0.034716
    157 H69        -6.6240   -2.6100   -3.1760 hc        1 MOL     -0.017449
    158 H70        -7.0890   -0.9280   -2.6290 hc        1 MOL     -0.017449
    159 N14        -4.4920   -1.1650    1.6530 n         1 MOL     -0.062094
    160 C53        -3.7000   -1.4030    2.8530 c3        1 MOL      0.061344
    161 C54        -4.2520   -0.6150    4.0680 c         1 MOL      0.359204
    162 O24        -4.1770   -1.1920    5.2120 o         1 MOL     -0.596693
    163 C55        -2.2750   -0.9870    2.7150 c3        1 MOL      0.056475
    164 C56        -1.3900   -1.8720    1.7130 c3        1 MOL     -0.214089
    165 C57        -0.2430   -1.1190    1.0300 c         1 MOL      0.820939
    166 O25         0.4360   -1.7500    0.2020 o         1 MOL     -0.783279
    167 O26         0.1130    0.0250    1.3600 o         1 MOL     -0.783279
    168 H71        -4.4070   -0.3970    1.0160 hn        1 MOL     -0.042275
    169 H72        -3.8110   -2.4750    3.0290 h1        1 MOL      0.048011
    170 H73        -1.8440   -1.0220    3.7110 hc        1 MOL      0.012298
    171 H74        -2.2820    0.0320    2.3340 hc        1 MOL      0.012298
    172 H75        -1.9230   -2.4320    0.9480 hc        1 MOL      0.068996
    173 H76        -0.9770   -2.6370    2.3640 hc        1 MOL      0.068996
    174 N15        -4.7740    0.5700    3.9570 n         1 MOL     -0.038813
    175 C58        -5.4000    1.3950    5.0970 c3        1 MOL     -0.212445
    176 H77        -5.0970    0.9780    6.0560 h1        1 MOL      0.088623
    177 H78        -5.0600    2.4280    5.0270 h1        1 MOL      0.088623
    178 H79        -6.4870    1.3640    5.0150 h1        1 MOL      0.088623
    179 H80        -4.6660    0.9070    3.0150 hn        1 MOL      0.113346
    180 Ca1         2.6560   -0.3010    0.3970 Ca        1 MOL      1.794899
    181 O27         2.4900   -0.8130    3.0460 oh        1 MOL     -0.934568
    182 O28         1.0610    1.1300   -1.5420 oh        1 MOL     -0.934568
    183 H81         2.7350   -0.3340    3.8420 ho        1 MOL      0.438778
    184 H82         1.6100    1.8030   -1.9300 ho        1 MOL      0.438778
    185 H83         1.7980   -1.4080    3.3270 ho        1 MOL      0.438778
    186 H84         1.0000    0.4520   -2.2060 ho        1 MOL      0.438778
    187 O29         5.2400   -0.4680    1.0250 oh        1 MOL     -0.934568
    188 H85         5.4530   -1.3820    1.2110 ho        1 MOL      0.438778
    189 H86         5.5010    0.0050    1.8160 ho        1 MOL      0.438778
@<TRIPOS>BOND
     1    1    2 1   
     2    1    4 1   
     3    1    5 1   
     4    1    6 1   
     5    2    3 2   
     6    2    7 1   
     7    7    8 1   
     8    7   15 1   
     9    8    9 1   
    10    8   11 1   
    11    8   16 1   
    12    9   10 2   
    13    9   19 1   
    14   11   12 1   
    15   11   17 1   
    16   11   18 1   
    17   12   13 1   
    18   12   14 1   
    19   19   20 1   
    20   19   27 1   
    21   20   21 1   
    22   20   23 1   
    23   20   28 1   
    24   21   22 2   
    25   21   38 1   
    26   23   24 1   
    27   23   25 1   
    28   23   29 1   
    29   24   26 1   
    30   24   30 1   
    31   24   31 1   
    32   25   32 1   
    33   25   33 1   
    34   25   34 1   
    35   26   35 1   
    36   26   36 1   
    37   26   37 1   
    38   38   39 1   
    39   38   46 1   
    40   39   40 1   
    41   39   42 1   
    42   39   47 1   
    43   40   41 2   
    44   40   50 1   
    45   42   43 1   
    46   42   48 1   
    47   42   49 1   
    48   43   44 1   
    49   43   45 1   
    50   50   51 1   
    51   50   54 1   
    52   51   52 1   
    53   51   55 1   
    54   51   56 1   
    55   52   53 2   
    56   52   57 1   
    57   57   58 1   
    58   57   65 1   
    59   58   59 1   
    60   58   61 1   
    61   58   66 1   
    62   59   60 2   
    63   59   69 1   
    64   61   62 1   
    65   61   67 1   
    66   61   68 1   
    67   62   63 1   
    68   62   64 1   
    69   69   70 1   
    70   69   73 1   
    71   70   71 1   
    72   70   74 1   
    73   70   75 1   
    74   71   72 2   
    75   71   76 1   
    76   76   77 1   
    77   76   85 1   
    78   77   78 1   
    79   77   80 1   
    80   77   86 1   
    81   78   79 2   
    82   78   93 1   
    83   80   81 1   
    84   80   87 1   
    85   80   88 1   
    86   81   82 1   
    87   81   89 1   
    88   81   90 1   
    89   82   83 1   
    90   82   84 2   
    91   83   91 1   
    92   83   92 1   
    93   93   94 1   
    94   93  100 1   
    95   94   95 1   
    96   94   97 1   
    97   94  101 1   
    98   95   96 2   
    99   95  109 1   
   100   97   98 1   
   101   97   99 1   
   102   97  102 1   
   103   98  103 1   
   104   98  104 1   
   105   98  105 1   
   106   99  106 1   
   107   99  107 1   
   108   99  108 1   
   109  109  110 1   
   110  109  117 1   
   111  110  111 1   
   112  110  113 1   
   113  110  118 1   
   114  111  112 2   
   115  111  123 1   
   116  113  114 1   
   117  113  119 1   
   118  113  120 1   
   119  114  115 1   
   120  114  116 2   
   121  115  121 1   
   122  115  122 1   
   123  123  124 1   
   124  123  135 1   
   125  124  125 1   
   126  124  127 1   
   127  124  136 1   
   128  125  126 2   
   129  125  144 1   
   130  127  128 1   
   131  127  137 1   
   132  127  138 1   
   133  128  129 ar  
   134  128  130 ar  
   135  129  131 ar  
   136  129  139 1   
   137  130  132 ar  
   138  130  140 1   
   139  131  133 ar  
   140  131  141 1   
   141  132  133 ar  
   142  132  142 1   
   143  133  134 1   
   144  134  143 1   
   145  144  145 1   
   146  144  153 1   
   147  145  146 1   
   148  145  148 1   
   149  145  154 1   
   150  146  147 2   
   151  146  159 1   
   152  148  149 1   
   153  148  155 1   
   154  148  156 1   
   155  149  150 1   
   156  149  157 1   
   157  149  158 1   
   158  150  151 1   
   159  150  152 1   
   160  159  160 1   
   161  159  168 1   
   162  160  161 1   
   163  160  163 1   
   164  160  169 1   
   165  161  162 2   
   166  161  174 1   
   167  163  164 1   
   168  163  170 1   
   169  163  171 1   
   170  164  165 1   
   171  164  172 1   
   172  164  173 1   
   173  165  166 1   
   174  165  167 1   
   175  174  175 1   
   176  174  179 1   
   177  175  176 1   
   178  175  177 1   
   179  175  178 1   
   180  181  183 1   
   181  181  185 1   
   182  182  184 1   
   183  182  186 1   
   184  187  188 1   
   185  187  189 1   
@<TRIPOS>SUBSTRUCTURE
     1 MOL         1 TEMP              0 ****  ****    0 ROOT
