@<TRIPOS>MOLECULE
MOL
  189   185     1     0     0
SMALL
resp


@<TRIPOS>ATOM
      1 C1          0.5970   -3.3850    6.0910 c3        1 MOL     -0.411076
      2 C2          0.8110   -2.9860    4.6120 c         1 MOL      0.746597
      3 O1          0.5080   -1.8400    4.1470 o         1 MOL     -0.631946
      4 H1          1.4490   -3.9700    6.4350 hc        1 MOL      0.108163
      5 H2          0.5030   -2.4860    6.7000 hc        1 MOL      0.108163
      6 H3         -0.3110   -3.9810    6.1790 hc        1 MOL      0.108163
      7 N1          1.3270   -3.9770    3.9040 n         1 MOL     -0.609354
      8 C3          1.9800   -3.6160    2.6260 c3        1 MOL      0.240820
      9 C4          1.9300   -4.7680    1.5850 c         1 MOL      0.418058
     10 O2          2.0700   -5.9580    2.0160 o         1 MOL     -0.602216
     11 C5          3.4300   -3.2370    2.9690 c3        1 MOL     -0.238297
     12 C6          4.1980   -2.5920    1.8410 c         1 MOL      0.724274
     13 O3          3.5830   -2.2800    0.7730 o         1 MOL     -0.676594
     14 O4          5.3900   -2.2330    1.9930 o         1 MOL     -0.676594
     15 H4          1.7310   -4.7610    4.3970 hn        1 MOL      0.329860
     16 H5          1.3940   -2.8280    2.1570 h1        1 MOL      0.061036
     17 H6          3.8470   -4.2150    3.2170 hc        1 MOL      0.045778
     18 H7          3.4490   -2.6060    3.8600 hc        1 MOL      0.045778
     19 N2          1.9520   -4.4940    0.2980 n         1 MOL     -0.027967
     20 C7          2.1390   -5.5110   -0.8010 c3        1 MOL     -0.092975
     21 C8          3.5240   -5.3120   -1.4600 c         1 MOL      0.551175
     22 O5          4.1190   -6.3300   -1.8330 o         1 MOL     -0.598716
     23 C9          0.9880   -5.3370   -1.8300 c3        1 MOL      0.424247
     24 C10        -0.3630   -5.6360   -1.1290 c3        1 MOL     -0.025407
     25 C11         1.1520   -6.0390   -3.1550 c3        1 MOL     -0.559175
     26 C12        -1.5470   -5.2270   -2.0180 c3        1 MOL     -0.214482
     27 H8          1.9970   -3.5190    0.0240 hn        1 MOL     -0.076107
     28 H9          1.9990   -6.5140   -0.4190 h1        1 MOL      0.059645
     29 H10         0.9330   -4.2820   -2.0980 hc        1 MOL     -0.000354
     30 H11        -0.3630   -5.1740   -0.1380 hc        1 MOL     -0.005363
     31 H12        -0.3510   -6.6930   -0.8780 hc        1 MOL     -0.005363
     32 H13         2.0150   -5.6260   -3.6700 hc        1 MOL      0.118086
     33 H14         1.2090   -7.1200   -3.0390 hc        1 MOL      0.118086
     34 H15         0.3490   -5.6360   -3.7760 hc        1 MOL      0.118086
     35 H16        -1.7360   -5.8540   -2.8990 hc        1 MOL      0.055246
     36 H17        -2.4970   -5.1800   -1.4810 hc        1 MOL      0.055246
     37 H18        -1.3740   -4.2150   -2.3740 hc        1 MOL      0.055246
     38 N3          4.1340   -4.1630   -1.5700 n         1 MOL     -0.455338
     39 C13         5.0700   -3.7440   -2.6540 c3        1 MOL      0.194948
     40 C14         6.3270   -2.9620   -2.1800 c         1 MOL      0.259082
     41 O6          7.4450   -3.0100   -2.7960 o         1 MOL     -0.543690
     42 C15         4.4380   -2.9130   -3.7650 c3        1 MOL     -0.324092
     43 C16         3.5190   -1.7790   -3.2320 c         1 MOL      0.662291
     44 O7          3.4850   -1.4320   -1.9680 o         1 MOL     -0.638860
     45 O8          2.7740   -1.3170   -4.1250 o         1 MOL     -0.638860
     46 H19         3.7890   -3.4050   -1.0030 hn        1 MOL      0.355763
     47 H20         5.5070   -4.6320   -3.1170 h1        1 MOL      0.061484
     48 H21         3.7920   -3.5970   -4.3200 hc        1 MOL      0.090152
     49 H22         5.1710   -2.4860   -4.4410 hc        1 MOL      0.090152
     50 N4          6.2100   -2.2920   -1.0320 n         1 MOL      0.028970
     51 C17         7.2790   -1.4780   -0.4800 c3        1 MOL     -0.175491
     52 C18         7.4870   -0.1050   -1.0430 c         1 MOL      0.461193
     53 O9          8.6020    0.4380   -0.9450 o         1 MOL     -0.570051
     54 H23         5.3000   -2.3060   -0.6130 hn        1 MOL     -0.002873
     55 H24         8.2110   -2.0290   -0.6270 h1        1 MOL      0.095189
     56 H25         7.1780   -1.4360    0.6070 h1        1 MOL      0.095189
     57 N5          6.4790    0.4850   -1.6980 n         1 MOL     -0.205938
     58 C19         6.6140    1.7720   -2.4030 c3        1 MOL      0.115128
     59 C20         7.0290    2.8930   -1.5080 c         1 MOL      0.413933
     60 O10         8.0060    3.6750   -1.7480 o         1 MOL     -0.569690
     61 C21         5.3880    2.1770   -3.1890 c3        1 MOL     -0.414986
     62 C22         4.1660    2.4940   -2.3010 c         1 MOL      0.749136
     63 O11         3.9460    1.8170   -1.3340 o         1 MOL     -0.684817
     64 O12         3.4240    3.5160   -2.5650 o         1 MOL     -0.684817
     65 H26         5.5410    0.1040   -1.6510 hn        1 MOL      0.183185
     66 H27         7.4150    1.6800   -3.1390 h1        1 MOL      0.060559
     67 H28         5.1840    1.3100   -3.8180 hc        1 MOL      0.106934
     68 H29         5.6710    3.0560   -3.7790 hc        1 MOL      0.106934
     69 N6          6.3420    3.0380   -0.3660 n         1 MOL     -0.134814
     70 C23         6.5130    4.0760    0.6400 c3        1 MOL     -0.209216
     71 C24         5.1850    4.4200    1.3710 c         1 MOL      0.475079
     72 O13         5.1560    5.0300    2.4730 o         1 MOL     -0.590005
     73 H30         5.6380    2.3360   -0.2170 hn        1 MOL      0.180803
     74 H31         6.9470    4.9630    0.1990 h1        1 MOL      0.109887
     75 H32         7.1310    3.6800    1.4370 h1        1 MOL      0.109887
     76 N7          4.0440    4.0390    0.7970 n         1 MOL     -0.165883
     77 C25         2.7590    4.5470    1.3640 c3        1 MOL      0.023320
     78 C26         1.7070    3.4750    1.4750 c         1 MOL      0.490868
     79 O14         1.6360    2.4990    0.6860 o         1 MOL     -0.534384
     80 C27         2.2310    5.6990    0.4420 c3        1 MOL     -0.040940
     81 C28         3.3220    6.6510   -0.1340 c3        1 MOL     -0.161374
     82 C29         2.6110    7.8330   -0.8030 c         1 MOL      0.596407
     83 N8          1.9910    7.7370   -1.9620 n         1 MOL     -0.772769
     84 O15         2.4660    8.8820   -0.1720 o         1 MOL     -0.594187
     85 H33         4.0670    3.2850    0.1320 hn        1 MOL      0.110106
     86 H34         2.8510    4.8630    2.4010 h1        1 MOL      0.051007
     87 H35         1.4170    6.2180    0.9450 hc        1 MOL      0.063170
     88 H36         1.8210    5.1230   -0.3990 hc        1 MOL      0.063170
     89 H37         3.8520    6.0370   -0.8580 hc        1 MOL      0.077645
     90 H38         4.0450    7.0850    0.5590 hc        1 MOL      0.077645
     91 H39         1.9730    6.9430   -2.5730 hn        1 MOL      0.355249
     92 H40         1.5340    8.5890   -2.2840 hn        1 MOL      0.355249
     93 N9          0.8090    3.5340    2.4520 n         1 MOL     -0.558330
     94 C30        -0.2700    2.6260    2.7120 c3        1 MOL      0.033001
     95 C31        -1.4910    3.0400    1.9000 c         1 MOL      0.577902
     96 O16        -1.9450    4.2000    2.0000 o         1 MOL     -0.588144
     97 C32        -0.4810    2.4560    4.2750 c3        1 MOL      0.243314
     98 C33        -1.1080    3.6190    5.0250 c3        1 MOL     -0.308593
     99 C34        -1.3970    1.2030    4.5000 c3        1 MOL     -0.308593
    100 H41         0.8150    4.3720    3.0220 hn        1 MOL      0.313212
    101 H42        -0.0550    1.6450    2.3090 h1        1 MOL      0.127143
    102 H43         0.4720    2.1580    4.7280 hc        1 MOL     -0.007681
    103 H44        -2.1760    3.6290    4.7870 hc        1 MOL      0.065731
    104 H45        -0.9630    3.5410    6.1020 hc        1 MOL      0.065731
    105 H46        -0.7500    4.5750    4.6370 hc        1 MOL      0.065731
    106 H47        -1.2170    0.9520    5.5420 hc        1 MOL      0.065731
    107 H48        -2.4650    1.3750    4.3540 hc        1 MOL      0.065731
    108 H49        -1.0880    0.3860    3.8520 hc        1 MOL      0.065731
    109 N10        -1.9290    2.1150    0.9970 n         1 MOL     -0.250221
    110 C35        -3.1460    2.2220    0.1890 c3        1 MOL      0.130385
    111 C36        -4.4380    1.8310    1.0470 c         1 MOL      0.167025
    112 O17        -4.2910    1.1980    2.0530 o         1 MOL     -0.351381
    113 C37        -2.9300    1.3340   -1.0570 c3        1 MOL     -0.283843
    114 C38        -3.9330    1.5360   -2.1980 c         1 MOL      0.758295
    115 N11        -4.1290    2.7470   -2.7560 n         1 MOL     -0.862803
    116 O18        -4.5090    0.5980   -2.6790 o         1 MOL     -0.515631
    117 H50        -1.3730    1.2810    0.8740 hn        1 MOL      0.114174
    118 H51        -3.2040    3.2360   -0.2150 h1        1 MOL      0.026275
    119 H52        -2.9620    0.2740   -0.8020 hc        1 MOL      0.112128
    120 H53        -1.9000    1.5350   -1.3270 hc        1 MOL      0.112128
    121 H54        -3.6920    3.6420   -2.5850 hn        1 MOL      0.368246
    122 H55        -4.7930    2.8290   -3.5080 hn        1 MOL      0.368246
    123 N12        -5.6530    2.0670    0.5110 n         1 MOL      0.010930
    124 C39        -7.0080    1.6870    1.0410 c3        1 MOL     -0.074454
    125 C40        -7.2180    0.1440    0.9000 c         1 MOL      0.451451
    126 O19        -8.0540   -0.5060    1.5630 o         1 MOL     -0.571212
    127 C41        -8.0100    2.6210    0.3190 c3        1 MOL     -0.196466
    128 C42        -7.9760    2.6080   -1.2370 ca        1 MOL      0.084342
    129 C43        -8.5880    1.5310   -2.0140 ca        1 MOL     -0.248061
    130 C44        -7.2640    3.5890   -1.8840 ca        1 MOL     -0.248061
    131 C45        -8.5430    1.6120   -3.4150 ca        1 MOL     -0.194629
    132 C46        -7.2190    3.6490   -3.2530 ca        1 MOL     -0.194629
    133 C47        -7.8740    2.6880   -4.0240 ca        1 MOL      0.312422
    134 O20        -7.7870    2.8040   -5.3890 oh        1 MOL     -0.553965
    135 H56        -5.7330    2.7750   -0.2040 hn        1 MOL      0.051860
    136 H57        -7.1620    1.8100    2.1060 h1        1 MOL      0.081690
    137 H58        -7.9900    3.6800    0.5700 hc        1 MOL      0.085826
    138 H59        -9.0110    2.2630    0.5580 hc        1 MOL      0.085826
    139 H60        -9.1620    0.7730   -1.4990 ha        1 MOL      0.173313
    140 H61        -6.7190    4.2540   -1.2350 ha        1 MOL      0.173313
    141 H62        -8.9260    0.9060   -4.1350 ha        1 MOL      0.128490
    142 H63        -6.6050    4.4170   -3.6880 ha        1 MOL      0.128490
    143 H64        -8.2840    2.0710   -5.7690 ho        1 MOL      0.421197
    144 N13        -6.4590   -0.4700    0.0040 n         1 MOL      0.091916
    145 C48        -6.4080   -1.9340   -0.0940 c3        1 MOL     -0.454253
    146 C49        -5.4390   -2.6610    0.9110 c         1 MOL      0.544430
    147 O21        -5.1710   -3.8370    0.7880 o         1 MOL     -0.556490
    148 C50        -6.2550   -2.4110   -1.5510 c3        1 MOL      0.147609
    149 C51        -7.0470   -1.6600   -2.6460 c3        1 MOL     -0.274266
    150 C52        -7.2260   -2.5900   -3.8310 c         1 MOL      0.655419
    151 O22        -8.3190   -3.1840   -4.0400 o         1 MOL     -0.725544
    152 O23        -6.1820   -2.9590   -4.3640 o         1 MOL     -0.725544
    153 H65        -5.8220    0.0360   -0.5900 hn        1 MOL      0.174556
    154 H66        -7.4170   -2.2480    0.1810 h1        1 MOL      0.147073
    155 H67        -6.5510   -3.4610   -1.5530 hc        1 MOL      0.058314
    156 H68        -5.1760   -2.4040   -1.7380 hc        1 MOL      0.058314
    157 H69        -6.5140   -0.7790   -3.0150 hc        1 MOL      0.045436
    158 H70        -8.0320   -1.3550   -2.3200 hc        1 MOL      0.045436
    159 N14        -4.6780   -1.8470    1.5640 n         1 MOL     -0.049147
    160 C53        -3.6100   -2.2550    2.4290 c3        1 MOL     -0.156354
    161 C54        -3.7810   -1.9280    3.9540 c         1 MOL      0.418951
    162 O24        -3.5460   -2.7180    4.8810 o         1 MOL     -0.518557
    163 C55        -2.3080   -1.5840    1.9180 c3        1 MOL      0.239749
    164 C56        -1.7270   -2.1610    0.6470 c3        1 MOL     -0.050182
    165 C57        -0.4120   -1.4040    0.2270 c         1 MOL      0.623391
    166 O25        -0.2010   -0.2010    0.3770 o         1 MOL     -0.650425
    167 O26         0.4630   -2.0940   -0.3580 o         1 MOL     -0.650425
    168 H71        -4.9250   -0.8650    1.5960 hn        1 MOL     -0.105539
    169 H72        -3.3220   -3.3070    2.3600 h1        1 MOL      0.097506
    170 H73        -1.5240   -1.7230    2.6530 hc        1 MOL     -0.003067
    171 H74        -2.5720   -0.5330    1.8320 hc        1 MOL     -0.003067
    172 H75        -2.4340   -2.0940   -0.1720 hc        1 MOL      0.001446
    173 H76        -1.4210   -3.2020    0.7900 hc        1 MOL      0.001446
    174 N15        -4.4750   -0.7720    4.2080 n         1 MOL     -0.190198
    175 C58        -4.7520   -0.2580    5.5380 c3        1 MOL     -0.140680
    176 H77        -5.8140   -0.3720    5.7570 h1        1 MOL      0.063249
    177 H78        -4.1690   -0.8140    6.2720 h1        1 MOL      0.063249
    178 H79        -4.4830    0.7980    5.5830 h1        1 MOL      0.063249
    179 H80        -4.6410   -0.1300    3.4520 hn        1 MOL      0.217111
    180 Ca1         2.4230   -0.0790   -0.0610 Ca        1 MOL      1.845162
    181 O27         5.1050    0.1940    1.0540 oh        1 MOL     -0.980506
    182 H81         5.7040    0.6700    1.6290 ho        1 MOL      0.446254
    183 H82         5.1790   -0.7160    1.3440 ho        1 MOL      0.446254
    184 O28         1.9570   -0.3940    2.5860 oh        1 MOL     -0.980506
    185 H83         1.3170   -0.8260    3.1590 ho        1 MOL      0.446254
    186 H84         2.7310   -0.2870    3.1360 ho        1 MOL      0.446254
    187 O29         1.0100    0.4030   -2.1840 oh        1 MOL     -0.980506
    188 H85         0.2310   -0.1000   -2.4020 ho        1 MOL      0.446254
    189 H86         1.2250    0.8780   -2.9830 ho        1 MOL      0.446254
@<TRIPOS>BOND
     1    1    2 1   
     2    1    4 1   
     3    1    5 1   
     4    1    6 1   
     5    2    3 2   
     6    2    7 1   
     7    7    8 1   
     8    7   15 1   
     9    8    9 1   
    10    8   11 1   
    11    8   16 1   
    12    9   10 2   
    13    9   19 1   
    14   11   12 1   
    15   11   17 1   
    16   11   18 1   
    17   12   13 1   
    18   12   14 1   
    19   19   20 1   
    20   19   27 1   
    21   20   21 1   
    22   20   23 1   
    23   20   28 1   
    24   21   22 2   
    25   21   38 1   
    26   23   24 1   
    27   23   25 1   
    28   23   29 1   
    29   24   26 1   
    30   24   30 1   
    31   24   31 1   
    32   25   32 1   
    33   25   33 1   
    34   25   34 1   
    35   26   35 1   
    36   26   36 1   
    37   26   37 1   
    38   38   39 1   
    39   38   46 1   
    40   39   40 1   
    41   39   42 1   
    42   39   47 1   
    43   40   41 2   
    44   40   50 1   
    45   42   43 1   
    46   42   48 1   
    47   42   49 1   
    48   43   44 1   
    49   43   45 1   
    50   50   51 1   
    51   50   54 1   
    52   51   52 1   
    53   51   55 1   
    54   51   56 1   
    55   52   53 2   
    56   52   57 1   
    57   57   58 1   
    58   57   65 1   
    59   58   59 1   
    60   58   61 1   
    61   58   66 1   
    62   59   60 2   
    63   59   69 1   
    64   61   62 1   
    65   61   67 1   
    66   61   68 1   
    67   62   63 1   
    68   62   64 1   
    69   69   70 1   
    70   69   73 1   
    71   70   71 1   
    72   70   74 1   
    73   70   75 1   
    74   71   72 2   
    75   71   76 1   
    76   76   77 1   
    77   76   85 1   
    78   77   78 1   
    79   77   80 1   
    80   77   86 1   
    81   78   79 2   
    82   78   93 1   
    83   80   81 1   
    84   80   87 1   
    85   80   88 1   
    86   81   82 1   
    87   81   89 1   
    88   81   90 1   
    89   82   83 1   
    90   82   84 2   
    91   83   91 1   
    92   83   92 1   
    93   93   94 1   
    94   93  100 1   
    95   94   95 1   
    96   94   97 1   
    97   94  101 1   
    98   95   96 2   
    99   95  109 1   
   100   97   98 1   
   101   97   99 1   
   102   97  102 1   
   103   98  103 1   
   104   98  104 1   
   105   98  105 1   
   106   99  106 1   
   107   99  107 1   
   108   99  108 1   
   109  109  110 1   
   110  109  117 1   
   111  110  111 1   
   112  110  113 1   
   113  110  118 1   
   114  111  112 2   
   115  111  123 1   
   116  113  114 1   
   117  113  119 1   
   118  113  120 1   
   119  114  115 1   
   120  114  116 2   
   121  115  121 1   
   122  115  122 1   
   123  123  124 1   
   124  123  135 1   
   125  124  125 1   
   126  124  127 1   
   127  124  136 1   
   128  125  126 2   
   129  125  144 1   
   130  127  128 1   
   131  127  137 1   
   132  127  138 1   
   133  128  129 ar  
   134  128  130 ar  
   135  129  131 ar  
   136  129  139 1   
   137  130  132 ar  
   138  130  140 1   
   139  131  133 ar  
   140  131  141 1   
   141  132  133 ar  
   142  132  142 1   
   143  133  134 1   
   144  134  143 1   
   145  144  145 1   
   146  144  153 1   
   147  145  146 1   
   148  145  148 1   
   149  145  154 1   
   150  146  147 2   
   151  146  159 1   
   152  148  149 1   
   153  148  155 1   
   154  148  156 1   
   155  149  150 1   
   156  149  157 1   
   157  149  158 1   
   158  150  151 1   
   159  150  152 1   
   160  159  160 1   
   161  159  168 1   
   162  160  161 1   
   163  160  163 1   
   164  160  169 1   
   165  161  162 2   
   166  161  174 1   
   167  163  164 1   
   168  163  170 1   
   169  163  171 1   
   170  164  165 1   
   171  164  172 1   
   172  164  173 1   
   173  165  166 1   
   174  165  167 1   
   175  174  175 1   
   176  174  179 1   
   177  175  176 1   
   178  175  177 1   
   179  175  178 1   
   180  181  182 1   
   181  181  183 1   
   182  184  185 1   
   183  184  186 1   
   184  187  188 1   
   185  187  189 1   
@<TRIPOS>SUBSTRUCTURE
     1 MOL         1 TEMP              0 ****  ****    0 ROOT
