@<TRIPOS>MOLECULE
MOL
  175   173     1     0     0
SMALL
resp


@<TRIPOS>ATOM
      1 C1         -0.9010    3.6740    5.8110 c3        1 MOL     -0.337062
      2 C2         -1.0150    3.1680    4.3930 c         1 MOL      0.809053
      3 O1          0.0760    2.9010    3.8290 o         1 MOL     -0.607006
      4 H1         -1.5010    3.0460    6.4700 hc        1 MOL      0.073308
      5 H2          0.1420    3.6390    6.1270 hc        1 MOL      0.073308
      6 H3         -1.2630    4.7010    5.8610 hc        1 MOL      0.073308
      7 N1         -2.2500    2.9220    3.8980 n         1 MOL     -0.707898
      8 C3         -2.5280    2.5750    2.5180 c3        1 MOL      0.466650
      9 C4         -2.7230    3.8370    1.7020 c         1 MOL      0.523077
     10 O2         -3.3470    4.7710    2.1750 o         1 MOL     -0.591749
     11 C5         -3.7120    1.5450    2.5030 c3        1 MOL     -0.372248
     12 C6         -4.1550    1.0160    1.1170 c         1 MOL      1.216922
     13 O3         -5.1310    0.2790    1.0430 o         1 MOL     -0.876079
     14 O4         -3.5450    1.4410    0.0770 o         1 MOL     -0.876079
     15 H4         -3.0290    3.0350    4.5330 hn        1 MOL      0.333394
     16 H5         -1.6950    2.0750    2.0210 h1        1 MOL     -0.215744
     17 H6         -4.5580    2.1470    2.8350 hc        1 MOL      0.035447
     18 H7         -3.4700    0.6300    3.0540 hc        1 MOL      0.035447
     19 N2         -2.0380    3.9490    0.5400 n         1 MOL     -0.544612
     20 C7         -2.0080    5.1950   -0.3070 c3        1 MOL      0.445033
     21 C8         -3.1300    5.1010   -1.2770 c         1 MOL      0.308671
     22 O5         -3.6140    6.1170   -1.7880 o         1 MOL     -0.592992
     23 C9         -0.5890    5.3690   -0.8110 c3        1 MOL     -0.353935
     24 H8         -1.4860    3.2020    0.1320 hn        1 MOL      0.361274
     25 H9         -2.2340    6.0700    0.3120 h1        1 MOL     -0.012379
     26 H10         0.1400    5.2610   -0.0110 hc        1 MOL      0.082107
     27 H11        -0.4770    4.6330   -1.6100 hc        1 MOL      0.082107
     28 H12        -0.5390    6.3700   -1.2390 hc        1 MOL      0.082107
     29 N3         -3.5940    3.9470   -1.7110 n         1 MOL     -0.040244
     30 C10        -4.5790    3.7500   -2.7660 c3        1 MOL      0.050945
     31 C11        -5.9420    3.0740   -2.3250 c         1 MOL      0.393607
     32 O6         -6.8560    3.2150   -3.1750 o         1 MOL     -0.541065
     33 C12        -3.9240    2.9190   -3.8900 c3        1 MOL     -0.232378
     34 C13        -3.2240    1.7080   -3.2700 c         1 MOL      0.751070
     35 O7         -3.8800    0.6490   -2.9300 o         1 MOL     -0.731655
     36 O8         -2.0060    1.7250   -3.0740 o         1 MOL     -0.731655
     37 H13        -3.2390    3.1210   -1.2370 hn        1 MOL      0.003364
     38 H14        -4.9140    4.6990   -3.1850 h1        1 MOL      0.099410
     39 H15        -3.1200    3.4190   -4.4340 hc        1 MOL      0.059079
     40 H16        -4.7000    2.5780   -4.5700 hc        1 MOL      0.059079
     41 N4         -6.1180    2.5650   -1.0880 n         1 MOL     -0.219308
     42 C14        -7.3310    2.1270   -0.5750 c3        1 MOL     -0.078568
     43 C15        -7.6170    0.6460   -0.5140 c         1 MOL      0.576414
     44 O9         -8.6440    0.3210    0.0730 o         1 MOL     -0.598292
     45 H17        -5.2590    2.4680   -0.5610 hn        1 MOL      0.181701
     46 H18        -8.1300    2.5730   -1.1650 h1        1 MOL      0.071888
     47 H19        -7.3920    2.5480    0.4320 h1        1 MOL      0.071888
     48 N5         -6.8790   -0.2310   -1.2910 n         1 MOL     -0.354477
     49 C16        -7.2650   -1.6280   -1.4770 c3        1 MOL      0.077782
     50 C17        -7.3390   -2.4230   -0.1980 c         1 MOL      0.459235
     51 O10        -7.7930   -3.5470   -0.3770 o         1 MOL     -0.590730
     52 C18        -6.2370   -2.2300   -2.4840 c3        1 MOL     -0.291915
     53 C19        -4.9660   -2.8230   -1.9070 c         1 MOL      0.751097
     54 N6         -4.7280   -4.1110   -2.0110 n         1 MOL     -0.818852
     55 O11        -4.0980   -2.0670   -1.4430 o         1 MOL     -0.670137
     56 H20        -5.9470    0.0880   -1.5260 hn        1 MOL      0.208864
     57 H21        -8.2470   -1.6460   -1.9530 h1        1 MOL      0.093244
     58 H22        -6.0810   -1.4300   -3.2130 hc        1 MOL      0.094090
     59 H23        -6.7520   -3.0720   -2.9610 hc        1 MOL      0.094090
     60 H24        -5.3700   -4.8140   -2.3350 hn        1 MOL      0.375891
     61 H25        -3.8280   -4.3640   -1.6310 hn        1 MOL      0.375891
     62 N7         -6.8140   -2.0470    0.9610 n         1 MOL     -0.192058
     63 C20        -6.8430   -2.8640    2.2510 c3        1 MOL     -0.205302
     64 C21        -5.5330   -3.5910    2.5480 c         1 MOL      0.507360
     65 O12        -5.4240   -4.3780    3.4700 o         1 MOL     -0.566710
     66 H26        -6.3980   -1.1320    1.0280 hn        1 MOL      0.294102
     67 H27        -7.6710   -3.5650    2.1080 h1        1 MOL      0.117850
     68 H28        -7.1660   -2.2060    3.0600 h1        1 MOL      0.117850
     69 N8         -4.4940   -3.3150    1.7720 n         1 MOL     -0.081910
     70 C22        -3.1280   -3.8980    1.8320 c3        1 MOL     -0.305316
     71 C23        -2.0720   -2.7550    1.5640 c         1 MOL      0.703292
     72 O13        -2.3370   -1.7020    0.9280 o         1 MOL     -0.651923
     73 C24        -3.0060   -5.1350    0.8960 c3        1 MOL      0.532520
     74 C25        -4.1860   -6.1460    0.7940 c3        1 MOL     -0.359745
     75 O14        -2.5410   -4.8730   -0.3840 oh        1 MOL     -0.690813
     76 H29        -4.6920   -2.6600    1.0280 hn        1 MOL      0.098968
     77 H30        -2.9050   -4.2350    2.8400 h1        1 MOL      0.123824
     78 H31        -2.2560   -5.8140    1.3040 h1        1 MOL     -0.036091
     79 H32        -2.1290   -5.6570   -0.7410 ho        1 MOL      0.424053
     80 H33        -5.0260   -5.6970    0.2620 hc        1 MOL      0.089709
     81 H34        -3.8880   -6.9800    0.1600 hc        1 MOL      0.089709
     82 H35        -4.4890   -6.4070    1.8060 hc        1 MOL      0.089709
     83 N9         -0.8130   -2.9560    2.0120 n         1 MOL     -0.368715
     84 C26         0.3070   -2.0360    1.5460 c3        1 MOL     -0.062409
     85 C27         1.4310   -2.8130    0.8670 c         1 MOL      0.412207
     86 O15         1.8110   -3.9490    1.1000 o         1 MOL     -0.586132
     87 C28         0.9440   -1.2780    2.7610 c3        1 MOL      0.132436
     88 C29         1.5350   -2.0310    3.9260 c3        1 MOL      0.022575
     89 C30        -0.0750   -0.2440    3.2720 c3        1 MOL     -0.445720
     90 C31         2.2180   -1.0820    4.9520 c3        1 MOL     -0.005263
     91 H36        -0.5710   -3.7880    2.5350 hn        1 MOL      0.253709
     92 H37        -0.0250   -1.3000    0.8140 h1        1 MOL     -0.024815
     93 H38         1.8360   -0.7790    2.3760 hc        1 MOL     -0.127044
     94 H39         2.3460   -2.6900    3.6260 hc        1 MOL     -0.002105
     95 H40         0.7500   -2.6470    4.3760 hc        1 MOL     -0.002105
     96 H41         0.3950    0.4710    3.9350 hc        1 MOL      0.143528
     97 H42        -0.4070    0.2800    2.3790 hc        1 MOL      0.143528
     98 H43        -0.9110   -0.8400    3.6340 hc        1 MOL      0.143528
     99 H44         1.4560   -0.5190    5.4980 hc        1 MOL     -0.004335
    100 H45         2.6240   -1.7330    5.7320 hc        1 MOL     -0.004335
    101 H46         2.9880   -0.5250    4.4320 hc        1 MOL     -0.004335
    102 N10         2.1400   -2.1140    0.0050 n         1 MOL     -0.057042
    103 C32         3.2030   -2.5410   -0.9440 c3        1 MOL      0.047618
    104 C33         4.4800   -1.8640   -0.3380 c         1 MOL      0.437270
    105 O16         4.3980   -1.0600    0.6010 o         1 MOL     -0.467480
    106 C34         2.8370   -1.9960   -2.3230 c3        1 MOL     -0.162404
    107 C35         3.6160   -2.6180   -3.4820 c         1 MOL      0.681023
    108 O17         4.5380   -3.3930   -3.1890 o         1 MOL     -0.702340
    109 O18         3.5790   -2.1160   -4.5830 o         1 MOL     -0.702340
    110 H47         1.8590   -1.1660   -0.2150 hn        1 MOL      0.185578
    111 H48         3.3760   -3.6080   -1.0480 h1        1 MOL      0.055731
    112 H49         2.9580   -0.9090   -2.2440 hc        1 MOL      0.008668
    113 H50         1.7910   -2.1700   -2.5420 hc        1 MOL      0.008668
    114 N11         5.6410   -1.9840   -0.9360 n         1 MOL     -0.531815
    115 C36         6.9330   -1.4890   -0.4980 c3        1 MOL      0.393167
    116 C37         7.0640    0.0500   -0.3460 c         1 MOL      0.273193
    117 O19         7.5500    0.5640    0.6760 o         1 MOL     -0.497276
    118 C38         8.0480   -2.1810   -1.2410 c3        1 MOL     -0.161042
    119 C39         9.4310   -1.6900   -0.7970 ca        1 MOL      0.019298
    120 C40         9.9850   -2.1240    0.4510 ca        1 MOL     -0.134645
    121 C41        10.2660   -0.8400   -1.6240 ca        1 MOL     -0.134645
    122 C42        11.3390   -1.8580    0.7670 ca        1 MOL     -0.102971
    123 C43        11.5650   -0.5600   -1.2020 ca        1 MOL     -0.102971
    124 C44        12.1490   -1.0310    0.0060 ca        1 MOL     -0.131848
    125 H51         5.5300   -2.2680   -1.8960 hn        1 MOL      0.228884
    126 H52         7.0710   -1.8780    0.5080 h1        1 MOL      0.038294
    127 H53         8.0680   -2.0270   -2.3160 hc        1 MOL      0.060292
    128 H54         7.9820   -3.2440   -1.0250 hc        1 MOL      0.060292
    129 H55         9.3460   -2.6730    1.1150 ha        1 MOL      0.110123
    130 H56         9.8010   -0.5260   -2.5500 ha        1 MOL      0.110123
    131 H57        11.7070   -2.1990    1.7290 ha        1 MOL      0.088959
    132 H58        12.1450   -0.0570   -1.9650 ha        1 MOL      0.088959
    133 H59        13.1380   -0.7200    0.2900 ha        1 MOL      0.113437
    134 N12         6.5750    0.7900   -1.3450 n         1 MOL      0.017401
    135 C45         6.7110    2.2260   -1.3480 c3        1 MOL     -0.018082
    136 C46         5.9030    2.8490   -0.1580 c         1 MOL      0.159915
    137 O20         6.3500    3.8290    0.4660 o         1 MOL     -0.467213
    138 C47         6.1460    2.7960   -2.7080 c3        1 MOL     -0.029494
    139 C48         6.3280    1.5650   -3.5850 c3        1 MOL     -0.240683
    140 C49         5.9690    0.3820   -2.6460 c3        1 MOL     -0.177915
    141 H60         7.7740    2.4490   -1.2780 h1        1 MOL      0.091096
    142 H61         5.0860    3.0160   -2.8500 hc        1 MOL      0.060431
    143 H62         6.7400    3.6220   -3.0920 hc        1 MOL      0.060431
    144 H63         5.6350    1.6450   -4.4220 hc        1 MOL      0.083304
    145 H64         7.3960    1.5610   -3.8260 hc        1 MOL      0.083304
    146 H65         4.8780    0.3120   -2.5970 h1        1 MOL      0.161959
    147 H66         6.4780   -0.5180   -2.9750 h1        1 MOL      0.161959
    148 N13         4.7500    2.2450    0.0970 n         1 MOL     -0.060212
    149 C50         3.8200    2.4780    1.2370 c3        1 MOL     -0.178766
    150 C51         4.4430    2.1240    2.6190 c         1 MOL      0.431441
    151 O21         4.2460    2.7620    3.6500 o         1 MOL     -0.565237
    152 C52         2.4850    1.6980    0.9090 c3        1 MOL     -0.043916
    153 C53         1.8120    2.2460   -0.3540 c3        1 MOL     -0.429064
    154 C54         0.5580    1.4120   -0.5990 c         1 MOL      0.840230
    155 O22        -0.5640    1.7750   -0.2310 o         1 MOL     -0.720521
    156 O23         0.6000    0.3770   -1.2560 o         1 MOL     -0.720521
    157 H67         4.4320    1.7160   -0.6970 hn        1 MOL      0.171441
    158 H68         3.4830    3.5190    1.2600 h1        1 MOL      0.134400
    159 H69         1.8050    1.7870    1.7530 hc        1 MOL      0.183080
    160 H70         2.6280    0.6480    0.6700 hc        1 MOL      0.183080
    161 H71         2.3650    2.0640   -1.2700 hc        1 MOL      0.105330
    162 H72         1.5300    3.2920   -0.2090 hc        1 MOL      0.105330
    163 N14         5.2280    1.0750    2.6960 n         1 MOL      0.060965
    164 C55         6.0400    0.6840    3.8350 c3        1 MOL     -0.039746
    165 H73         5.3930    0.3280    4.6370 h1        1 MOL      0.024475
    166 H74         6.7230   -0.1130    3.5390 h1        1 MOL      0.024475
    167 H75         6.6130    1.5430    4.1850 h1        1 MOL      0.024475
    168 H76         5.2250    0.3650    1.9760 hn        1 MOL      0.065365
    169 Ca1        -2.0650   -0.1790   -1.3200 Ca        1 MOL      1.825201
    170 O24        -1.1720   -2.8980   -1.5110 oh        1 MOL     -0.874873
    171 H77        -1.0540   -3.0760   -2.4440 ho        1 MOL      0.421303
    172 H78        -1.6590   -3.6480   -1.1830 ho        1 MOL      0.421303
    173 O25        -1.1670   -1.1750   -3.6930 oh        1 MOL     -0.874873
    174 H79        -0.7250   -1.9530   -4.0160 ho        1 MOL      0.421303
    175 H80        -0.8140   -0.4540   -4.2210 ho        1 MOL      0.421303
@<TRIPOS>BOND
     1    1    2 1   
     2    1    4 1   
     3    1    5 1   
     4    1    6 1   
     5    2    3 2   
     6    2    7 1   
     7    7    8 1   
     8    7   15 1   
     9    8    9 1   
    10    8   11 1   
    11    8   16 1   
    12    9   10 2   
    13    9   19 1   
    14   11   12 1   
    15   11   17 1   
    16   11   18 1   
    17   12   13 1   
    18   12   14 1   
    19   19   20 1   
    20   19   24 1   
    21   20   21 1   
    22   20   23 1   
    23   20   25 1   
    24   21   22 2   
    25   21   29 1   
    26   23   26 1   
    27   23   27 1   
    28   23   28 1   
    29   29   30 1   
    30   29   37 1   
    31   30   31 1   
    32   30   33 1   
    33   30   38 1   
    34   31   32 2   
    35   31   41 1   
    36   33   34 1   
    37   33   39 1   
    38   33   40 1   
    39   34   35 1   
    40   34   36 1   
    41   41   42 1   
    42   41   45 1   
    43   42   43 1   
    44   42   46 1   
    45   42   47 1   
    46   43   44 2   
    47   43   48 1   
    48   48   49 1   
    49   48   56 1   
    50   49   50 1   
    51   49   52 1   
    52   49   57 1   
    53   50   51 2   
    54   50   62 1   
    55   52   53 1   
    56   52   58 1   
    57   52   59 1   
    58   53   54 1   
    59   53   55 2   
    60   54   60 1   
    61   54   61 1   
    62   62   63 1   
    63   62   66 1   
    64   63   64 1   
    65   63   67 1   
    66   63   68 1   
    67   64   65 2   
    68   64   69 1   
    69   69   70 1   
    70   69   76 1   
    71   70   71 1   
    72   70   73 1   
    73   70   77 1   
    74   71   72 2   
    75   71   83 1   
    76   73   74 1   
    77   73   75 1   
    78   73   78 1   
    79   74   80 1   
    80   74   81 1   
    81   74   82 1   
    82   75   79 1   
    83   83   84 1   
    84   83   91 1   
    85   84   85 1   
    86   84   87 1   
    87   84   92 1   
    88   85   86 2   
    89   85  102 1   
    90   87   88 1   
    91   87   89 1   
    92   87   93 1   
    93   88   90 1   
    94   88   94 1   
    95   88   95 1   
    96   89   96 1   
    97   89   97 1   
    98   89   98 1   
    99   90   99 1   
   100   90  100 1   
   101   90  101 1   
   102  102  103 1   
   103  102  110 1   
   104  103  104 1   
   105  103  106 1   
   106  103  111 1   
   107  104  105 2   
   108  104  114 1   
   109  106  107 1   
   110  106  112 1   
   111  106  113 1   
   112  107  108 1   
   113  107  109 1   
   114  114  115 1   
   115  114  125 1   
   116  115  116 1   
   117  115  118 1   
   118  115  126 1   
   119  116  117 2   
   120  116  134 1   
   121  118  119 1   
   122  118  127 1   
   123  118  128 1   
   124  119  120 ar  
   125  119  121 ar  
   126  120  122 ar  
   127  120  129 1   
   128  121  123 ar  
   129  121  130 1   
   130  122  124 ar  
   131  122  131 1   
   132  123  124 ar  
   133  123  132 1   
   134  124  133 1   
   135  134  135 1   
   136  134  140 1   
   137  135  136 1   
   138  135  138 1   
   139  135  141 1   
   140  136  137 2   
   141  136  148 1   
   142  138  139 1   
   143  138  142 1   
   144  138  143 1   
   145  139  140 1   
   146  139  144 1   
   147  139  145 1   
   148  140  146 1   
   149  140  147 1   
   150  148  149 1   
   151  148  157 1   
   152  149  150 1   
   153  149  152 1   
   154  149  158 1   
   155  150  151 2   
   156  150  163 1   
   157  152  153 1   
   158  152  159 1   
   159  152  160 1   
   160  153  154 1   
   161  153  161 1   
   162  153  162 1   
   163  154  155 1   
   164  154  156 1   
   165  163  164 1   
   166  163  168 1   
   167  164  165 1   
   168  164  166 1   
   169  164  167 1   
   170  170  171 1   
   171  170  172 1   
   172  173  174 1   
   173  173  175 1   
@<TRIPOS>SUBSTRUCTURE
     1 MOL         1 TEMP              0 ****  ****    0 ROOT
