@<TRIPOS>MOLECULE
MOL
  179   176     1     0     0
SMALL
resp


@<TRIPOS>ATOM
      1 C1          1.0990    4.7690    5.2120 c3        1 MOL     -0.416969
      2 C2          0.9030    4.1870    3.8050 c         1 MOL      0.597962
      3 O1          1.7890    4.1890    2.9800 o         1 MOL     -0.557202
      4 H1          0.6840    5.7750    5.2500 hc        1 MOL      0.109146
      5 H2          0.5890    4.1380    5.9410 hc        1 MOL      0.109146
      6 H3          2.1630    4.8060    5.4450 hc        1 MOL      0.109146
      7 N1         -0.2520    3.5000    3.5740 n         1 MOL     -0.306585
      8 C3         -0.6580    3.0520    2.2270 c3        1 MOL      0.029005
      9 C4         -1.1440    4.3370    1.4170 c         1 MOL      0.212115
     10 O2         -2.1270    4.9600    1.7850 o         1 MOL     -0.458727
     11 C5         -1.7000    1.9670    2.3570 c3        1 MOL     -0.285538
     12 C6         -2.2620    1.4960    1.0180 c         1 MOL      0.841396
     13 O3         -1.5760    1.6040   -0.0100 o         1 MOL     -0.744546
     14 O4         -3.2940    0.8540    1.1820 o         1 MOL     -0.744546
     15 H4         -0.9250    3.5450    4.3250 hn        1 MOL      0.247160
     16 H5          0.2430    2.6500    1.7720 h1        1 MOL      0.083349
     17 H6         -2.5700    2.2090    2.9700 hc        1 MOL      0.088212
     18 H7         -1.1550    1.1140    2.7460 hc        1 MOL      0.088212
     19 N2         -0.3820    4.8240    0.4580 n         1 MOL     -0.029711
     20 C7         -0.5930    6.0570   -0.3130 c3        1 MOL     -0.110715
     21 C8         -1.7430    5.9040   -1.4110 c         1 MOL      0.509592
     22 O5         -2.4030    6.8950   -1.6700 o         1 MOL     -0.525016
     23 C9          0.7070    6.4900   -0.9520 c3        1 MOL     -0.086369
     24 C10         1.7280    6.8180    0.0990 c3        1 MOL      0.240687
     25 C11         3.0120    7.4910   -0.3840 c3        1 MOL     -0.270077
     26 C12         3.7590    8.0020    0.8270 c3        1 MOL      0.216390
     27 N3          4.7350    8.9350    0.4340 n4        1 MOL     -0.430361
     28 H8          0.4240    4.2840    0.1860 hn        1 MOL      0.227233
     29 H9         -0.7760    6.8310    0.4300 h1        1 MOL      0.106916
     30 H10         0.5220    7.3830   -1.5510 hc        1 MOL      0.032407
     31 H11         1.0840    5.7130   -1.6250 hc        1 MOL      0.032407
     32 H12         1.8660    5.9650    0.7680 hc        1 MOL     -0.049702
     33 H13         1.2020    7.5380    0.7320 hc        1 MOL     -0.049702
     34 H14         2.7310    8.3430   -0.9980 hc        1 MOL      0.083746
     35 H15         3.6690    6.7800   -0.8880 hc        1 MOL      0.083746
     36 H16         4.3510    7.2100    1.2930 hx        1 MOL      0.060722
     37 H17         3.1310    8.3820    1.6310 hx        1 MOL      0.060722
     38 H18         5.3040    9.2640    1.1940 hn        1 MOL      0.338521
     39 H19         5.3790    8.5790   -0.2520 hn        1 MOL      0.338521
     40 H20         4.1720    9.6790    0.0450 hn        1 MOL      0.338521
     41 N4         -2.1040    4.6550   -1.8920 n         1 MOL     -0.424871
     42 C13        -3.3760    4.5060   -2.6010 c3        1 MOL      0.270013
     43 C14        -4.5430    4.2310   -1.6250 c         1 MOL      0.298754
     44 O6         -5.6880    4.5140   -1.9980 o         1 MOL     -0.526266
     45 C15        -3.2370    3.4940   -3.7410 c3        1 MOL     -0.471463
     46 C16        -2.7830    2.1290   -3.1660 c         1 MOL      0.879944
     47 O7         -1.6450    1.6550   -3.3060 o         1 MOL     -0.757533
     48 O8         -3.5670    1.4430   -2.4500 o         1 MOL     -0.757533
     49 H21        -1.5040    3.9050   -1.5960 hn        1 MOL      0.226094
     50 H22        -3.6140    5.4440   -3.1190 h1        1 MOL      0.076654
     51 H23        -2.5430    3.8950   -4.4900 hc        1 MOL      0.119014
     52 H24        -4.2510    3.2880   -4.0990 hc        1 MOL      0.119014
     53 N5         -4.1840    3.7410   -0.4280 n         1 MOL      0.220966
     54 C17        -5.1230    3.5350    0.6460 c3        1 MOL     -0.403126
     55 C18        -6.0420    2.2660    0.4460 c         1 MOL      0.560341
     56 O9         -7.0850    2.2760    1.1000 o         1 MOL     -0.553813
     57 H25        -3.1940    3.6560   -0.2520 hn        1 MOL     -0.070115
     58 H26        -5.8350    4.3630    0.6940 h1        1 MOL      0.152997
     59 H27        -4.6700    3.3420    1.6220 h1        1 MOL      0.152997
     60 N6         -5.7640    1.4190   -0.5970 n         1 MOL     -0.262630
     61 C19        -6.6480    0.2460   -0.7730 c3        1 MOL     -0.094185
     62 C20        -6.5590   -0.8190    0.3360 c         1 MOL      0.390752
     63 O10        -7.4370   -1.6780    0.4170 o         1 MOL     -0.518044
     64 C21        -6.2550   -0.4340   -2.1210 c3        1 MOL     -0.124356
     65 C22        -5.0280   -1.3650   -2.1330 c         1 MOL      0.722332
     66 N7         -5.0130   -2.2700   -3.0940 n         1 MOL     -0.718200
     67 O11        -4.0540   -1.2580   -1.3940 o         1 MOL     -0.779121
     68 H28        -4.8860    1.5650   -1.0750 hn        1 MOL      0.185894
     69 H29        -7.6810    0.6030   -0.7370 h1        1 MOL      0.134715
     70 H30        -6.1550    0.3110   -2.9120 hc        1 MOL      0.076963
     71 H31        -7.1560   -0.9600   -2.4180 hc        1 MOL      0.076963
     72 H32        -5.7130   -2.4770   -3.7850 hn        1 MOL      0.350199
     73 H33        -4.1500   -2.7990   -3.0800 hn        1 MOL      0.350199
     74 N8         -5.6400   -0.6890    1.3100 n         1 MOL     -0.079913
     75 C23        -5.6180   -1.5260    2.5140 c3        1 MOL     -0.354806
     76 C24        -4.6310   -2.7190    2.4190 c         1 MOL      0.665196
     77 O12        -4.6350   -3.5120    3.3030 o         1 MOL     -0.580022
     78 H34        -4.8400   -0.0800    1.2900 hn        1 MOL      0.216449
     79 H35        -6.5570   -2.0370    2.7110 h1        1 MOL      0.138444
     80 H36        -5.3570   -1.0250    3.4420 h1        1 MOL      0.138444
     81 N9         -3.7310   -2.6980    1.4220 n         1 MOL     -0.433430
     82 C25        -2.5190   -3.5400    1.3350 c3        1 MOL      0.408642
     83 C26        -1.2910   -2.7000    1.2050 c         1 MOL      0.243858
     84 O13        -1.3050   -1.5860    0.6160 o         1 MOL     -0.602534
     85 C27        -2.6610   -4.5930    0.2930 c3        1 MOL     -0.121934
     86 C28        -3.9390   -5.3680    0.4580 ca        1 MOL     -0.006169
     87 C29        -5.0640   -4.9200   -0.1940 ca        1 MOL     -0.078267
     88 C30        -3.9910   -6.5710    1.1630 ca        1 MOL     -0.078267
     89 C31        -6.2120   -5.6870   -0.2440 ca        1 MOL     -0.328032
     90 C32        -5.1760   -7.3830    1.1210 ca        1 MOL     -0.328032
     91 C33        -6.2970   -6.9110    0.4390 ca        1 MOL      0.384811
     92 O14        -7.5410   -7.5300    0.4440 oh        1 MOL     -0.487721
     93 H37        -3.8630   -2.0300    0.6770 hn        1 MOL      0.356733
     94 H38        -2.3990   -3.9960    2.3240 h1        1 MOL     -0.027231
     95 H39        -1.8450   -5.3000    0.4210 hc        1 MOL      0.017065
     96 H40        -2.6630   -4.1010   -0.6780 hc        1 MOL      0.017065
     97 H41        -5.0770   -3.9570   -0.6880 ha        1 MOL      0.101402
     98 H42        -3.0850   -6.9580    1.5950 ha        1 MOL      0.101402
     99 H43        -7.1090   -5.3310   -0.7070 ha        1 MOL      0.158411
    100 H44        -5.1590   -8.3330    1.6350 ha        1 MOL      0.158411
    101 H45        -7.5110   -8.3240    0.9720 ho        1 MOL      0.355435
    102 N10        -0.1850   -3.2400    1.6710 n         1 MOL     -0.307453
    103 C34         1.1520   -2.7160    1.4650 c3        1 MOL     -0.034082
    104 C35         2.1700   -3.8400    0.9840 c         1 MOL      0.360824
    105 O15         2.3330   -4.9060    1.6090 o         1 MOL     -0.497815
    106 C36         1.5680   -2.1250    2.8590 c3        1 MOL      0.006092
    107 C37         0.9840   -0.7160    3.1060 c3        1 MOL      0.128585
    108 C38         3.1090   -1.9330    2.9960 c3        1 MOL     -0.263002
    109 C39         1.1480   -0.1820    4.5510 c3        1 MOL     -0.357062
    110 H46        -0.3020   -4.0340    2.2780 hn        1 MOL      0.286180
    111 H47         1.2680   -2.0610    0.6000 h1        1 MOL      0.137638
    112 H48         1.1900   -2.7940    3.6310 hc        1 MOL      0.064687
    113 H49        -0.0550   -0.8380    2.8120 hc        1 MOL      0.025314
    114 H50         1.3070   -0.0130    2.3410 hc        1 MOL      0.025314
    115 H51         3.5730   -1.3120    2.2400 hc        1 MOL      0.063152
    116 H52         3.3960   -1.3880    3.8930 hc        1 MOL      0.063152
    117 H53         3.5680   -2.9190    2.9060 hc        1 MOL      0.063152
    118 H54         1.9860    0.5050    4.6470 hc        1 MOL      0.084766
    119 H55         0.2890    0.4530    4.7700 hc        1 MOL      0.084766
    120 H56         1.2860   -0.9880    5.2640 hc        1 MOL      0.084766
    121 N11         2.9720   -3.5220   -0.0710 n         1 MOL     -0.118443
    122 C40         4.2160   -4.2240   -0.5590 c3        1 MOL     -0.087607
    123 C41         5.5670   -3.6690    0.0110 c         1 MOL      0.586084
    124 O16         5.6410   -2.6500    0.6940 o         1 MOL     -0.443565
    125 C42         4.1830   -4.3170   -2.0860 c3        1 MOL     -0.003588
    126 O17         4.0890   -3.0440   -2.6720 oh        1 MOL     -0.617094
    127 H57         2.8370   -2.5980   -0.4510 hn        1 MOL      0.118629
    128 H58         4.1430   -5.2640   -0.2230 h1        1 MOL      0.062562
    129 H59         3.2310   -4.7790   -2.3480 h1        1 MOL      0.080565
    130 H60         5.0040   -4.8920   -2.5070 h1        1 MOL      0.080565
    131 H61         3.3070   -2.5760   -2.3650 ho        1 MOL      0.461316
    132 N12         6.7190   -4.3770   -0.2970 n         1 MOL     -0.552355
    133 C43         8.1380   -3.9740    0.0570 c3        1 MOL      0.142513
    134 C44         8.4250   -2.4910   -0.3310 c         1 MOL      0.465877
    135 O18         8.6950   -1.5830    0.4660 o         1 MOL     -0.484699
    136 C45         9.0420   -5.0170   -0.5620 c3        1 MOL     -0.254684
    137 H62         6.6130   -5.1910   -0.8920 hn        1 MOL      0.295309
    138 H63         8.3010   -4.0180    1.1240 h1        1 MOL      0.079799
    139 H64         9.2370   -5.8940    0.0510 hc        1 MOL      0.080836
    140 H65         8.7210   -5.3310   -1.5540 hc        1 MOL      0.080836
    141 H66        10.0510   -4.6270   -0.6730 hc        1 MOL      0.080836
    142 N13         8.1650   -2.2210   -1.6460 n         1 MOL     -0.449963
    143 C46         8.2240   -0.9200   -2.3230 c3        1 MOL      0.146122
    144 C47         7.4550    0.1300   -1.5460 c         1 MOL      0.360218
    145 O19         7.9570    1.2110   -1.2120 o         1 MOL     -0.529726
    146 C48         7.5570   -1.0260   -3.6740 c3        1 MOL     -0.381109
    147 H67         7.9940   -3.0150   -2.2480 hn        1 MOL      0.287362
    148 H68         9.2790   -0.6550   -2.3320 h1        1 MOL      0.073024
    149 H69         7.5390   -0.0480   -4.1520 hc        1 MOL      0.107726
    150 H70         8.0520   -1.7430   -4.3330 hc        1 MOL      0.107726
    151 H71         6.5490   -1.4000   -3.5010 hc        1 MOL      0.107726
    152 N14         6.2500   -0.2340   -1.1820 n         1 MOL     -0.049403
    153 C49         5.2260    0.6230   -0.5170 c3        1 MOL     -0.145461
    154 C50         5.6040    0.9590    0.9160 c         1 MOL      0.354245
    155 O20         5.0480    1.9570    1.4190 o         1 MOL     -0.550318
    156 C51         3.8150    0.0030   -0.4780 c3        1 MOL      0.082679
    157 C52         3.2440    0.2170   -1.8760 c3        1 MOL     -0.164675
    158 C53         1.9130   -0.5290   -1.9650 c         1 MOL      0.757717
    159 O21         0.8400    0.1060   -1.8070 o         1 MOL     -0.749963
    160 O22         1.9970   -1.7590   -1.9740 o         1 MOL     -0.749963
    161 H72         5.8610   -1.1040   -1.5210 hn        1 MOL      0.157784
    162 H73         5.1880    1.5770   -1.0350 h1        1 MOL      0.111619
    163 H74         3.0770    0.4970    0.1630 hc        1 MOL      0.064494
    164 H75         3.8650   -1.0810   -0.3390 hc        1 MOL      0.064494
    165 H76         3.9600   -0.1700   -2.6060 hc        1 MOL      0.019414
    166 H77         3.0770    1.2580   -2.1450 hc        1 MOL      0.019414
    167 N15         6.3000    0.1050    1.6530 n         1 MOL      0.021041
    168 C54         6.7490    0.4100    3.0400 c3        1 MOL     -0.276740
    169 H78         6.3130    1.3550    3.3630 h1        1 MOL      0.104906
    170 H79         6.4260   -0.3860    3.7110 h1        1 MOL      0.104906
    171 H80         7.8370    0.4870    3.0620 h1        1 MOL      0.104906
    172 H81         6.5080   -0.8000    1.2540 hn        1 MOL      0.107248
    173 Ca1        -1.7750   -0.3610   -1.7340 Ca        1 MOL      1.807791
    174 O23        -0.4540   -2.5640   -2.3360 oh        1 MOL     -0.880772
    175 H82        -0.2360   -3.3400   -2.8570 ho        1 MOL      0.421366
    176 H83         0.3880   -2.2400   -2.0140 ho        1 MOL      0.421366
    177 O24        -2.4090   -1.2510   -4.2740 oh        1 MOL     -0.880772
    178 H84        -2.6930   -2.1460   -4.4490 ho        1 MOL      0.421366
    179 H85        -1.9020   -1.0080   -5.0490 ho        1 MOL      0.421366
@<TRIPOS>BOND
     1    1    2 1   
     2    1    4 1   
     3    1    5 1   
     4    1    6 1   
     5    2    3 2   
     6    2    7 1   
     7    7    8 1   
     8    7   15 1   
     9    8    9 1   
    10    8   11 1   
    11    8   16 1   
    12    9   10 2   
    13    9   19 1   
    14   11   12 1   
    15   11   17 1   
    16   11   18 1   
    17   12   13 1   
    18   12   14 1   
    19   19   20 1   
    20   19   28 1   
    21   20   21 1   
    22   20   23 1   
    23   20   29 1   
    24   21   22 2   
    25   21   41 1   
    26   23   24 1   
    27   23   30 1   
    28   23   31 1   
    29   24   25 1   
    30   24   32 1   
    31   24   33 1   
    32   25   26 1   
    33   25   34 1   
    34   25   35 1   
    35   26   27 1   
    36   26   36 1   
    37   26   37 1   
    38   27   38 1   
    39   27   39 1   
    40   27   40 1   
    41   41   42 1   
    42   41   49 1   
    43   42   43 1   
    44   42   45 1   
    45   42   50 1   
    46   43   44 2   
    47   43   53 1   
    48   45   46 1   
    49   45   51 1   
    50   45   52 1   
    51   46   47 1   
    52   46   48 1   
    53   53   54 1   
    54   53   57 1   
    55   54   55 1   
    56   54   58 1   
    57   54   59 1   
    58   55   56 2   
    59   55   60 1   
    60   60   61 1   
    61   60   68 1   
    62   61   62 1   
    63   61   64 1   
    64   61   69 1   
    65   62   63 2   
    66   62   74 1   
    67   64   65 1   
    68   64   70 1   
    69   64   71 1   
    70   65   66 1   
    71   65   67 2   
    72   66   72 1   
    73   66   73 1   
    74   74   75 1   
    75   74   78 1   
    76   75   76 1   
    77   75   79 1   
    78   75   80 1   
    79   76   77 2   
    80   76   81 1   
    81   81   82 1   
    82   81   93 1   
    83   82   83 1   
    84   82   85 1   
    85   82   94 1   
    86   83   84 2   
    87   83  102 1   
    88   85   86 1   
    89   85   95 1   
    90   85   96 1   
    91   86   87 ar  
    92   86   88 ar  
    93   87   89 ar  
    94   87   97 1   
    95   88   90 ar  
    96   88   98 1   
    97   89   91 ar  
    98   89   99 1   
    99   90   91 ar  
   100   90  100 1   
   101   91   92 1   
   102   92  101 1   
   103  102  103 1   
   104  102  110 1   
   105  103  104 1   
   106  103  106 1   
   107  103  111 1   
   108  104  105 2   
   109  104  121 1   
   110  106  107 1   
   111  106  108 1   
   112  106  112 1   
   113  107  109 1   
   114  107  113 1   
   115  107  114 1   
   116  108  115 1   
   117  108  116 1   
   118  108  117 1   
   119  109  118 1   
   120  109  119 1   
   121  109  120 1   
   122  121  122 1   
   123  121  127 1   
   124  122  123 1   
   125  122  125 1   
   126  122  128 1   
   127  123  124 2   
   128  123  132 1   
   129  125  126 1   
   130  125  129 1   
   131  125  130 1   
   132  126  131 1   
   133  132  133 1   
   134  132  137 1   
   135  133  134 1   
   136  133  136 1   
   137  133  138 1   
   138  134  135 2   
   139  134  142 1   
   140  136  139 1   
   141  136  140 1   
   142  136  141 1   
   143  142  143 1   
   144  142  147 1   
   145  143  144 1   
   146  143  146 1   
   147  143  148 1   
   148  144  145 2   
   149  144  152 1   
   150  146  149 1   
   151  146  150 1   
   152  146  151 1   
   153  152  153 1   
   154  152  161 1   
   155  153  154 1   
   156  153  156 1   
   157  153  162 1   
   158  154  155 2   
   159  154  167 1   
   160  156  157 1   
   161  156  163 1   
   162  156  164 1   
   163  157  158 1   
   164  157  165 1   
   165  157  166 1   
   166  158  159 1   
   167  158  160 1   
   168  167  168 1   
   169  167  172 1   
   170  168  169 1   
   171  168  170 1   
   172  168  171 1   
   173  174  175 1   
   174  174  176 1   
   175  177  178 1   
   176  177  179 1   
@<TRIPOS>SUBSTRUCTURE
     1 MOL         1 TEMP              0 ****  ****    0 ROOT
