@<TRIPOS>MOLECULE
MOL
  186   183     1     0     0
SMALL
resp


@<TRIPOS>ATOM
      1 C1          0.4770   -2.0400    6.2690 c3        1 MOL     -0.253709
      2 C2          0.7670   -2.1070    4.7510 c         1 MOL      0.750236
      3 O1         -0.1320   -2.5190    3.9630 o         1 MOL     -0.635990
      4 H1         -0.1730   -1.1890    6.4770 hc        1 MOL      0.053712
      5 H2         -0.0150   -2.9580    6.5860 hc        1 MOL      0.053712
      6 H3          1.4140   -1.9220    6.8130 hc        1 MOL      0.053712
      7 N1          1.9090   -1.6440    4.3340 n         1 MOL     -0.636351
      8 C3          2.4110   -1.5870    2.9460 c3        1 MOL     -0.004607
      9 C4          2.8850   -2.9410    2.5080 c         1 MOL      0.707396
     10 O2          3.8540   -3.5160    2.9720 o         1 MOL     -0.587764
     11 C5          3.5960   -0.5990    2.9590 c3        1 MOL     -0.084057
     12 C6          4.3270   -0.5410    1.5960 c         1 MOL      0.566701
     13 O3          5.5240   -0.1310    1.5120 o         1 MOL     -0.603776
     14 O4          3.6010   -0.8120    0.6210 o         1 MOL     -0.603776
     15 H4          2.5140   -1.3710    5.0940 hn        1 MOL      0.340882
     16 H5          1.6220   -1.2440    2.2740 h1        1 MOL      0.065425
     17 H6          4.3580   -0.8970    3.6850 hc        1 MOL      0.025984
     18 H7          3.3560    0.3620    3.4080 hc        1 MOL      0.025984
     19 N2          2.1440   -3.5510    1.5700 n         1 MOL     -0.535564
     20 C7          2.3140   -4.9810    1.1990 c3        1 MOL     -0.018879
     21 C8          3.3360   -5.1240    0.0370 c         1 MOL      0.443582
     22 O5          4.0520   -6.0850    0.0070 o         1 MOL     -0.553156
     23 C9          0.9860   -5.5480    0.7390 c3        1 MOL      0.224787
     24 C10        -0.1790   -5.3380    1.8710 c3        1 MOL     -0.043261
     25 C11         1.2400   -7.0990    0.4620 c3        1 MOL     -0.292812
     26 C12        -1.5750   -5.8260    1.3550 c3        1 MOL     -0.229397
     27 H8          1.5770   -2.8930    1.0560 hn        1 MOL      0.302120
     28 H9          2.6930   -5.5960    2.0120 h1        1 MOL      0.096147
     29 H10         0.6670   -5.0030   -0.1400 hc        1 MOL      0.002043
     30 H11        -0.3310   -4.3160    2.2050 hc        1 MOL      0.025563
     31 H12         0.1390   -5.8510    2.7850 hc        1 MOL      0.025563
     32 H13         1.8500   -7.2730   -0.4250 hc        1 MOL      0.061579
     33 H14         1.8200   -7.4990    1.2850 hc        1 MOL      0.061579
     34 H15         0.2720   -7.5940    0.3790 hc        1 MOL      0.061579
     35 H16        -1.7590   -5.5800    0.3090 hc        1 MOL      0.055594
     36 H17        -1.5470   -6.9210    1.3320 hc        1 MOL      0.055594
     37 H18        -2.3960   -5.4010    1.9270 hc        1 MOL      0.055594
     38 N3          3.3160   -4.2450   -0.9960 n         1 MOL     -0.245955
     39 C13         4.2900   -4.2520   -2.0650 c3        1 MOL      0.132948
     40 C14         5.5590   -3.4380   -1.8900 c         1 MOL      0.367184
     41 O6          6.5110   -3.6040   -2.6620 o         1 MOL     -0.542405
     42 C15         3.5990   -3.9470   -3.3880 c3        1 MOL     -0.421843
     43 C16         2.8720   -2.6010   -3.2480 c         1 MOL      0.914315
     44 O7          3.2520   -1.6450   -2.5470 o         1 MOL     -0.721484
     45 O8          1.9070   -2.4690   -4.0380 o         1 MOL     -0.721484
     46 H19         2.7950   -3.3940   -0.8950 hn        1 MOL      0.120476
     47 H20         4.6240   -5.2940   -2.1160 h1        1 MOL      0.077043
     48 H21         2.9570   -4.7910   -3.6200 hc        1 MOL      0.102693
     49 H22         4.2970   -3.7710   -4.2090 hc        1 MOL      0.102693
     50 N4          5.7000   -2.6440   -0.7810 n         1 MOL     -0.158777
     51 C17         6.9490   -2.3160   -0.1460 c3        1 MOL     -0.272036
     52 C18         7.6350   -1.0430   -0.6190 c         1 MOL      0.603664
     53 O9          8.8660   -0.9040   -0.5420 o         1 MOL     -0.619442
     54 H23         4.8610   -2.3660   -0.2790 hn        1 MOL      0.253149
     55 H24         7.6490   -3.1270   -0.3490 h1        1 MOL      0.110534
     56 H25         6.7450   -2.4040    0.9190 h1        1 MOL      0.110534
     57 N5          6.8050   -0.0600   -1.0290 n         1 MOL     -0.208195
     58 C19         7.2340    1.2100   -1.5590 c3        1 MOL     -0.049904
     59 C20         7.2790    2.3690   -0.5830 c         1 MOL      0.403971
     60 O10         7.5100    3.5720   -0.9250 o         1 MOL     -0.561343
     61 C21         6.3160    1.5650   -2.7730 c3        1 MOL     -0.153689
     62 C22         4.8210    1.4720   -2.3410 c         1 MOL      0.691188
     63 O11         3.9390    1.1340   -3.2240 o         1 MOL     -0.726307
     64 O12         4.4860    1.6840   -1.1460 o         1 MOL     -0.726307
     65 H26         5.8260   -0.1940   -0.8320 hn        1 MOL      0.103495
     66 H27         8.2260    1.0590   -1.9800 h1        1 MOL      0.101117
     67 H28         6.5160    0.7620   -3.4850 hc        1 MOL      0.050587
     68 H29         6.5880    2.4740   -3.3090 hc        1 MOL      0.050587
     69 N6          6.9680    1.9850    0.6690 n         1 MOL     -0.164971
     70 C23         6.8930    2.9370    1.8180 c3        1 MOL     -0.240624
     71 C24         5.7050    3.9150    1.8020 c         1 MOL      0.596131
     72 O13         5.8250    4.9350    2.4670 o         1 MOL     -0.588355
     73 H30         6.5480    1.0870    0.8290 hn        1 MOL      0.195452
     74 H31         7.8140    3.5100    1.7500 h1        1 MOL      0.099775
     75 H32         6.7650    2.4050    2.7660 h1        1 MOL      0.099775
     76 N7          4.6050    3.5360    1.1490 n         1 MOL     -0.372621
     77 C25         3.3090    4.2270    1.0970 c3        1 MOL      0.059429
     78 C26         2.1470    3.2140    1.0980 c         1 MOL      0.580998
     79 O14         2.3240    2.0800    0.6570 o         1 MOL     -0.607894
     80 C27         3.2050    5.1720   -0.1190 c3        1 MOL     -0.147302
     81 C28         4.3110    6.2070   -0.1300 c3        1 MOL     -0.061049
     82 C29         3.9580    7.3190   -1.1420 c         1 MOL      0.570670
     83 N8          4.1020    7.0000   -2.4860 n         1 MOL     -0.823828
     84 O15         3.7070    8.4630   -0.7750 o         1 MOL     -0.555590
     85 H33         4.6380    2.6690    0.6440 hn        1 MOL      0.324472
     86 H34         3.2480    4.8360    2.0040 h1        1 MOL      0.038726
     87 H35         2.1990    5.5960   -0.1560 hc        1 MOL      0.057767
     88 H36         3.3170    4.6020   -1.0440 hc        1 MOL      0.057767
     89 H37         5.3070    5.7990   -0.3090 hc        1 MOL      0.061702
     90 H38         4.3940    6.6490    0.8590 hc        1 MOL      0.061702
     91 H39         4.4300    6.0870   -2.7440 hn        1 MOL      0.372839
     92 H40         3.9250    7.8120   -3.0690 hn        1 MOL      0.372839
     93 N9          1.0200    3.7140    1.5940 n         1 MOL     -0.576289
     94 C30        -0.1380    2.7440    1.8210 c3        1 MOL      0.025454
     95 C31        -1.2780    3.1220    0.9660 c         1 MOL      0.461691
     96 O16        -1.9330    4.1850    1.1110 o         1 MOL     -0.593675
     97 C32        -0.5130    2.7050    3.3310 c3        1 MOL      0.255744
     98 C33        -1.8980    2.1250    3.6260 c3        1 MOL     -0.359914
     99 C34         0.4770    1.8680    4.1570 c3        1 MOL     -0.359914
    100 H41         0.9200    4.7050    1.7700 hn        1 MOL      0.333669
    101 H42         0.1100    1.7130    1.5600 h1        1 MOL      0.191173
    102 H43        -0.4400    3.7240    3.7020 hc        1 MOL     -0.017791
    103 H44        -2.7100    2.8310    3.4560 hc        1 MOL      0.084278
    104 H45        -2.0080    1.2040    3.0440 hc        1 MOL      0.084278
    105 H46        -1.9090    1.8190    4.6710 hc        1 MOL      0.084278
    106 H47         1.5440    2.0930    4.0800 hc        1 MOL      0.084278
    107 H48         0.2430    2.0480    5.2020 hc        1 MOL      0.084278
    108 H49         0.4220    0.8050    3.8940 hc        1 MOL      0.084278
    109 N10        -1.6570    2.2330    0.0240 n         1 MOL     -0.160619
    110 C35        -2.6970    2.3440   -0.9680 c3        1 MOL      0.042467
    111 C36        -4.0740    1.9400   -0.3390 c         1 MOL      0.506153
    112 O17        -4.0910    1.0690    0.4680 o         1 MOL     -0.387913
    113 C37        -2.3060    1.4900   -2.2200 c3        1 MOL     -0.243599
    114 C38        -3.3470    1.6640   -3.2760 c         1 MOL      0.662102
    115 N11        -3.0350    2.5650   -4.2070 n         1 MOL     -0.794000
    116 O18        -4.4440    1.1370   -3.1770 o         1 MOL     -0.533621
    117 H50        -1.1880    1.3360    0.0940 hn        1 MOL      0.132909
    118 H51        -2.8780    3.3670   -1.2950 h1        1 MOL      0.019531
    119 H52        -2.2670    0.4610   -1.8610 hc        1 MOL      0.079265
    120 H53        -1.2850    1.7000   -2.5490 hc        1 MOL      0.079265
    121 H54        -2.0690    2.8010   -4.3650 hn        1 MOL      0.361291
    122 H55        -3.6820    2.7120   -4.9710 hn        1 MOL      0.361291
    123 N12        -5.1740    2.5190   -0.8350 n         1 MOL     -0.672852
    124 C39        -6.5390    2.1790   -0.3370 c3        1 MOL      0.479873
    125 C40        -6.8260    0.6200   -0.2000 c         1 MOL      0.524471
    126 O19        -7.4090    0.1970    0.8140 o         1 MOL     -0.518930
    127 C41        -7.6490    2.7820   -1.2000 c3        1 MOL     -0.222405
    128 C42        -9.0790    2.4900   -0.6980 ca        1 MOL      0.173104
    129 C43        -9.4900    2.9200    0.5930 ca        1 MOL     -0.315082
    130 C44       -10.0230    1.8610   -1.5030 ca        1 MOL     -0.315082
    131 C45       -10.8260    2.7680    1.0000 ca        1 MOL     -0.080047
    132 C46       -11.4040    1.6480   -1.0760 ca        1 MOL     -0.080047
    133 C47       -11.8450    2.1970    0.1370 ca        1 MOL      0.148260
    134 O20       -13.1200    2.0880    0.5460 oh        1 MOL     -0.454629
    135 H56        -5.0120    3.1840   -1.5720 hn        1 MOL      0.325435
    136 H57        -6.5940    2.6850    0.6310 h1        1 MOL     -0.010824
    137 H58        -7.5570    2.3250   -2.1870 hc        1 MOL      0.045617
    138 H59        -7.4360    3.8500   -1.2280 hc        1 MOL      0.045617
    139 H60        -8.7990    3.4180    1.2520 ha        1 MOL      0.164045
    140 H61        -9.7050    1.4880   -2.4620 ha        1 MOL      0.164045
    141 H62       -11.1320    3.2600    1.9170 ha        1 MOL      0.102486
    142 H63       -12.0260    1.0960   -1.7550 ha        1 MOL      0.102486
    143 H64       -13.6250    1.5540   -0.0760 ho        1 MOL      0.357466
    144 N13        -6.3460   -0.1660   -1.1620 n         1 MOL     -0.464607
    145 C48        -6.3860   -1.6780   -1.1050 c3        1 MOL      0.006672
    146 C49        -5.5620   -2.2430    0.0640 c         1 MOL      0.349874
    147 O21        -5.9750   -3.2490    0.6880 o         1 MOL     -0.494767
    148 C50        -5.8320   -2.1530   -2.4680 c3        1 MOL     -0.150961
    149 C51        -5.5280   -3.6760   -2.5020 c3        1 MOL     -0.201842
    150 C52        -5.0280   -4.2230   -3.8440 c         1 MOL      0.704246
    151 O22        -3.9640   -3.7510   -4.2980 o         1 MOL     -0.737511
    152 O23        -5.5910   -5.2400   -4.2800 o         1 MOL     -0.737511
    153 H65        -5.7900    0.2040   -1.9150 hn        1 MOL      0.271103
    154 H66        -7.4160   -2.0160   -1.0000 h1        1 MOL      0.107707
    155 H67        -4.8780   -1.6830   -2.6690 hc        1 MOL      0.061715
    156 H68        -6.4560   -1.8640   -3.3100 hc        1 MOL      0.061715
    157 H69        -6.4190   -4.1700   -2.1190 hc        1 MOL      0.052367
    158 H70        -4.7030   -3.9320   -1.8360 hc        1 MOL      0.052367
    159 N14        -4.3510   -1.7530    0.3530 n         1 MOL     -0.263864
    160 C53        -3.5490   -2.0040    1.5570 c3        1 MOL     -0.223144
    161 C54        -4.2370   -1.5670    2.8900 c         1 MOL      0.546796
    162 O24        -4.2350   -2.2740    3.8430 o         1 MOL     -0.569373
    163 C55        -2.1310   -1.4830    1.4160 c3        1 MOL      0.250201
    164 C56        -1.4230   -1.9590    0.1080 c3        1 MOL     -0.181245
    165 C57        -0.0750   -1.2130   -0.1510 c         1 MOL      0.652077
    166 O25         0.9600   -1.7790   -0.6500 o         1 MOL     -0.718340
    167 O26         0.0070   -0.0230    0.0160 o         1 MOL     -0.718340
    168 H71        -3.8780   -1.0280   -0.1750 hn        1 MOL      0.300275
    169 H72        -3.4790   -3.0840    1.6220 h1        1 MOL      0.157720
    170 H73        -1.5240   -1.8770    2.2250 hc        1 MOL     -0.015611
    171 H74        -2.1820   -0.4080    1.5650 hc        1 MOL     -0.015611
    172 H75        -2.0530   -1.8470   -0.7720 hc        1 MOL      0.078199
    173 H76        -1.1590   -2.9960    0.3250 hc        1 MOL      0.078199
    174 N15        -4.9330   -0.4320    2.8060 n         1 MOL      0.072072
    175 C58        -5.6970    0.1740    3.8990 c3        1 MOL     -0.456028
    176 H77        -5.9640    1.1960    3.6310 h1        1 MOL      0.134227
    177 H78        -6.6030   -0.4040    4.0740 h1        1 MOL      0.134227
    178 H79        -5.0910    0.1830    4.8050 h1        1 MOL      0.134227
    179 H80        -5.0370   -0.1090    1.8560 hn        1 MOL     -0.048599
    180 Ca1         2.3070    0.3540   -1.2300 Ca        1 MOL      1.749373
    181 O27         1.3750    2.6280   -2.0390 oh        1 MOL     -0.802262
    182 H81         1.5220    3.5420   -1.7900 ho        1 MOL      0.376597
    183 H82         1.5330    2.6140   -2.9900 ho        1 MOL      0.376597
    184 O28         1.0800   -0.1000   -3.4620 oh        1 MOL     -0.802262
    185 H83         1.2130   -0.9910   -3.7810 ho        1 MOL      0.376597
    186 H84         0.3830    0.2510   -4.0180 ho        1 MOL      0.376597
@<TRIPOS>BOND
     1    1    2 1   
     2    1    4 1   
     3    1    5 1   
     4    1    6 1   
     5    2    3 2   
     6    2    7 1   
     7    7    8 1   
     8    7   15 1   
     9    8    9 1   
    10    8   11 1   
    11    8   16 1   
    12    9   10 2   
    13    9   19 1   
    14   11   12 1   
    15   11   17 1   
    16   11   18 1   
    17   12   13 1   
    18   12   14 1   
    19   19   20 1   
    20   19   27 1   
    21   20   21 1   
    22   20   23 1   
    23   20   28 1   
    24   21   22 2   
    25   21   38 1   
    26   23   24 1   
    27   23   25 1   
    28   23   29 1   
    29   24   26 1   
    30   24   30 1   
    31   24   31 1   
    32   25   32 1   
    33   25   33 1   
    34   25   34 1   
    35   26   35 1   
    36   26   36 1   
    37   26   37 1   
    38   38   39 1   
    39   38   46 1   
    40   39   40 1   
    41   39   42 1   
    42   39   47 1   
    43   40   41 2   
    44   40   50 1   
    45   42   43 1   
    46   42   48 1   
    47   42   49 1   
    48   43   44 1   
    49   43   45 1   
    50   50   51 1   
    51   50   54 1   
    52   51   52 1   
    53   51   55 1   
    54   51   56 1   
    55   52   53 2   
    56   52   57 1   
    57   57   58 1   
    58   57   65 1   
    59   58   59 1   
    60   58   61 1   
    61   58   66 1   
    62   59   60 2   
    63   59   69 1   
    64   61   62 1   
    65   61   67 1   
    66   61   68 1   
    67   62   63 1   
    68   62   64 1   
    69   69   70 1   
    70   69   73 1   
    71   70   71 1   
    72   70   74 1   
    73   70   75 1   
    74   71   72 2   
    75   71   76 1   
    76   76   77 1   
    77   76   85 1   
    78   77   78 1   
    79   77   80 1   
    80   77   86 1   
    81   78   79 2   
    82   78   93 1   
    83   80   81 1   
    84   80   87 1   
    85   80   88 1   
    86   81   82 1   
    87   81   89 1   
    88   81   90 1   
    89   82   83 1   
    90   82   84 2   
    91   83   91 1   
    92   83   92 1   
    93   93   94 1   
    94   93  100 1   
    95   94   95 1   
    96   94   97 1   
    97   94  101 1   
    98   95   96 2   
    99   95  109 1   
   100   97   98 1   
   101   97   99 1   
   102   97  102 1   
   103   98  103 1   
   104   98  104 1   
   105   98  105 1   
   106   99  106 1   
   107   99  107 1   
   108   99  108 1   
   109  109  110 1   
   110  109  117 1   
   111  110  111 1   
   112  110  113 1   
   113  110  118 1   
   114  111  112 2   
   115  111  123 1   
   116  113  114 1   
   117  113  119 1   
   118  113  120 1   
   119  114  115 1   
   120  114  116 2   
   121  115  121 1   
   122  115  122 1   
   123  123  124 1   
   124  123  135 1   
   125  124  125 1   
   126  124  127 1   
   127  124  136 1   
   128  125  126 2   
   129  125  144 1   
   130  127  128 1   
   131  127  137 1   
   132  127  138 1   
   133  128  129 ar  
   134  128  130 ar  
   135  129  131 ar  
   136  129  139 1   
   137  130  132 ar  
   138  130  140 1   
   139  131  133 ar  
   140  131  141 1   
   141  132  133 ar  
   142  132  142 1   
   143  133  134 1   
   144  134  143 1   
   145  144  145 1   
   146  144  153 1   
   147  145  146 1   
   148  145  148 1   
   149  145  154 1   
   150  146  147 2   
   151  146  159 1   
   152  148  149 1   
   153  148  155 1   
   154  148  156 1   
   155  149  150 1   
   156  149  157 1   
   157  149  158 1   
   158  150  151 1   
   159  150  152 1   
   160  159  160 1   
   161  159  168 1   
   162  160  161 1   
   163  160  163 1   
   164  160  169 1   
   165  161  162 2   
   166  161  174 1   
   167  163  164 1   
   168  163  170 1   
   169  163  171 1   
   170  164  165 1   
   171  164  172 1   
   172  164  173 1   
   173  165  166 1   
   174  165  167 1   
   175  174  175 1   
   176  174  179 1   
   177  175  176 1   
   178  175  177 1   
   179  175  178 1   
   180  181  182 1   
   181  181  183 1   
   182  184  185 1   
   183  184  186 1   
@<TRIPOS>SUBSTRUCTURE
     1 MOL         1 TEMP              0 ****  ****    0 ROOT
