@<TRIPOS>MOLECULE
MOL
  189   185     1     0     0
SMALL
resp


@<TRIPOS>ATOM
      1 C1         -0.6240    4.1410    4.5630 c3        1 MOL     -0.469498
      2 C2         -0.8590    3.1960    3.3940 c         1 MOL      0.648006
      3 O1         -0.1790    3.2790    2.3480 o         1 MOL     -0.589542
      4 H1         -0.4230    5.1430    4.1840 hc        1 MOL      0.121495
      5 H2         -1.5110    4.1630    5.1970 hc        1 MOL      0.121495
      6 H3          0.2310    3.7950    5.1450 hc        1 MOL      0.121495
      7 N1         -1.8760    2.3640    3.4470 n         1 MOL     -0.496189
      8 C3         -2.4220    1.7630    2.2780 c3        1 MOL      0.116442
      9 C4         -3.1730    2.9140    1.4810 c         1 MOL      0.448970
     10 O2         -4.3990    3.0900    1.5110 o         1 MOL     -0.515137
     11 C5         -3.3660    0.5600    2.6870 c3        1 MOL     -0.323076
     12 C6         -4.0380   -0.0790    1.4340 c         1 MOL      0.721533
     13 O3         -3.7460    0.2920    0.2730 o         1 MOL     -0.643711
     14 O4         -4.9910   -0.8610    1.6030 o         1 MOL     -0.643711
     15 H4         -2.3870    2.3760    4.3280 hn        1 MOL      0.323776
     16 H5         -1.6790    1.3870    1.5850 h1        1 MOL      0.063655
     17 H6         -4.1300    0.9980    3.3250 hc        1 MOL      0.101550
     18 H7         -2.8730   -0.2160    3.2660 hc        1 MOL      0.101550
     19 N2         -2.4490    3.7790    0.7320 n         1 MOL     -0.394880
     20 C7         -2.9130    5.0380   -0.0820 c3        1 MOL     -0.016661
     21 C8         -3.9710    4.7750   -1.1340 c         1 MOL      0.585077
     22 O5         -4.5170    5.7340   -1.5050 o         1 MOL     -0.576675
     23 C9         -1.6880    5.7750   -0.6710 c3        1 MOL     -0.122746
     24 C10        -0.6010    6.1020    0.3890 c3        1 MOL      0.076767
     25 C11        -1.0530    7.2180    1.2230 c3        1 MOL     -0.227038
     26 C12         0.1490    7.9790    1.8320 c3        1 MOL      0.076161
     27 N3         -0.3300    8.9790    2.7150 n4        1 MOL     -0.290094
     28 H8         -1.4720    3.5140    0.7110 hn        1 MOL      0.360553
     29 H9         -3.4350    5.6890    0.6210 h1        1 MOL      0.069870
     30 H10        -2.1160    6.6640   -1.1490 hc        1 MOL      0.056681
     31 H11        -1.1710    5.2000   -1.4300 hc        1 MOL      0.056681
     32 H12         0.2690    6.4180   -0.1790 hc        1 MOL      0.030949
     33 H13        -0.3320    5.2410    0.9940 hc        1 MOL      0.030949
     34 H14        -1.7700    6.8350    1.9450 hc        1 MOL      0.077964
     35 H15        -1.6930    7.9200    0.6920 hc        1 MOL      0.077964
     36 H16         0.8450    8.4090    1.1060 hx        1 MOL      0.074141
     37 H17         0.7070    7.2080    2.3510 hx        1 MOL      0.074141
     38 H18        -0.8030    8.6150    3.5250 hn        1 MOL      0.308421
     39 H19         0.4270    9.5490    3.0670 hn        1 MOL      0.308421
     40 H20        -0.9070    9.7060    2.3130 hn        1 MOL      0.308421
     41 N4         -4.1560    3.6060   -1.7090 n         1 MOL     -0.344401
     42 C13        -5.1560    3.3770   -2.8280 c3        1 MOL      0.095148
     43 C14        -6.3130    2.4110   -2.3920 c         1 MOL      0.299974
     44 O6         -7.2990    2.2060   -3.1120 o         1 MOL     -0.500351
     45 C15        -4.4880    2.9710   -4.1590 c3        1 MOL     -0.182971
     46 C16        -3.3940    1.9560   -3.9810 c         1 MOL      0.823485
     47 O7         -3.2290    1.2310   -2.9810 o         1 MOL     -0.722571
     48 O8         -2.5890    1.8340   -4.9550 o         1 MOL     -0.722571
     49 H21        -3.4910    2.8900   -1.4340 hn        1 MOL      0.192058
     50 H22        -5.6570    4.3340   -2.9800 h1        1 MOL      0.070879
     51 H23        -3.9630    3.8620   -4.4790 hc        1 MOL      0.057276
     52 H24        -5.2120    2.6700   -4.9150 hc        1 MOL      0.057276
     53 N5         -6.0560    1.7000   -1.3280 n         1 MOL      0.263778
     54 C17        -7.0790    0.9820   -0.6580 c3        1 MOL     -0.541497
     55 C18        -7.4110   -0.3690   -1.2630 c         1 MOL      0.812141
     56 O9         -8.3540   -0.5340   -2.0400 o         1 MOL     -0.570482
     57 H25        -5.1050    1.6200   -0.9970 hn        1 MOL     -0.102143
     58 H26        -7.9760    1.6050   -0.6470 h1        1 MOL      0.157093
     59 H27        -6.7340    0.8320    0.3630 h1        1 MOL      0.157093
     60 N6         -6.6670   -1.3730   -0.8170 n         1 MOL     -0.610219
     61 C19        -6.7280   -2.7720   -1.2240 c3        1 MOL      0.081813
     62 C20        -6.6120   -3.7470    0.0170 c         1 MOL      0.439422
     63 O10        -6.8470   -4.9700   -0.1360 o         1 MOL     -0.550658
     64 C21        -5.7720   -3.0490   -2.3600 c3        1 MOL     -0.132474
     65 C22        -4.3730   -2.4590   -2.1530 c         1 MOL      0.737869
     66 O11        -3.8170   -2.5850   -1.0410 o         1 MOL     -0.716810
     67 O12        -3.7870   -1.8950   -3.0660 o         1 MOL     -0.716810
     68 H28        -5.8970   -1.0590   -0.2400 hn        1 MOL      0.305883
     69 H29        -7.7160   -2.9050   -1.6460 h1        1 MOL      0.084926
     70 H30        -6.1270   -2.5920   -3.2840 hc        1 MOL      0.051147
     71 H31        -5.6530   -4.1190   -2.5710 hc        1 MOL      0.051147
     72 N7         -6.2910   -3.2380    1.1960 n         1 MOL     -0.328686
     73 C23        -6.0050   -4.1710    2.2450 c3        1 MOL      0.057595
     74 C24        -4.5610   -4.4870    2.4230 c         1 MOL      0.457732
     75 O13        -4.2600   -5.1610    3.3930 o         1 MOL     -0.582436
     76 H32        -5.8550   -2.3320    1.1690 hn        1 MOL      0.225945
     77 H33        -6.5470   -5.1050    2.1120 h1        1 MOL      0.056684
     78 H34        -6.4450   -3.7480    3.1470 h1        1 MOL      0.056684
     79 N8         -3.7040   -4.0450    1.5070 n         1 MOL     -0.077417
     80 C25        -2.3380   -4.3750    1.3780 c3        1 MOL     -0.214407
     81 C26        -1.3340   -3.2190    1.3240 c         1 MOL      0.693624
     82 O14        -1.5500   -2.1320    0.7270 o         1 MOL     -0.675088
     83 C27        -2.1530   -5.3910    0.2390 c3        1 MOL      0.553083
     84 C28        -2.6090   -6.7970    0.5500 c3        1 MOL     -0.432601
     85 O15        -2.8890   -5.0360   -0.9710 oh        1 MOL     -0.695933
     86 H35        -3.9890   -3.5170    0.6960 hn        1 MOL      0.063512
     87 H36        -2.0730   -4.9490    2.2680 h1        1 MOL      0.061354
     88 H37        -1.0790   -5.4370    0.0370 h1        1 MOL     -0.074959
     89 H38        -3.1710   -4.1200   -0.8540 ho        1 MOL      0.491407
     90 H39        -3.5090   -6.7120    1.1630 hc        1 MOL      0.107374
     91 H40        -2.9060   -7.3250   -0.3520 hc        1 MOL      0.107374
     92 H41        -1.8390   -7.3390    1.0950 hc        1 MOL      0.107374
     93 N9         -0.1840   -3.4340    1.9710 n         1 MOL     -0.613721
     94 C29         1.0620   -2.5690    2.1150 c3        1 MOL      0.048272
     95 C30         2.2120   -3.1760    1.2470 c         1 MOL      0.594747
     96 O16         2.7680   -4.1770    1.5820 o         1 MOL     -0.538531
     97 C31         1.3220   -2.2300    3.5670 c3        1 MOL      0.016225
     98 C32         0.4020   -1.1490    4.1720 c3        1 MOL      0.060339
     99 C33         2.7820   -1.9150    3.8860 c3        1 MOL     -0.278882
    100 C34         0.5480   -0.7900    5.6450 c3        1 MOL     -0.159491
    101 H42        -0.1080   -4.3650    2.3590 hn        1 MOL      0.319791
    102 H43         0.8350   -1.6010    1.6770 h1        1 MOL      0.137643
    103 H44         1.0060   -3.0700    4.1840 hc        1 MOL      0.026502
    104 H45        -0.6410   -1.4240    4.0350 hc        1 MOL      0.013183
    105 H46         0.5330   -0.2720    3.5300 hc        1 MOL      0.013183
    106 H47         2.8810   -0.9010    3.4920 hc        1 MOL      0.064743
    107 H48         3.0350   -1.8500    4.9440 hc        1 MOL      0.064743
    108 H49         3.4580   -2.6670    3.4620 hc        1 MOL      0.064743
    109 H50        -0.2980   -0.1620    5.9230 hc        1 MOL      0.040017
    110 H51         0.4750   -1.6300    6.3410 hc        1 MOL      0.040017
    111 H52         1.5180   -0.3720    5.9190 hc        1 MOL      0.040017
    112 N10         2.4300   -2.5640    0.1180 n         1 MOL     -0.393925
    113 C35         3.6800   -2.5940   -0.6600 c3        1 MOL     -0.064224
    114 C36         4.8910   -2.2120    0.0800 c         1 MOL      0.482702
    115 O17         4.8190   -1.4610    1.0640 o         1 MOL     -0.426361
    116 C37         3.5180   -1.8840   -2.0370 c3        1 MOL      0.255424
    117 C38         2.4710   -2.5840   -2.8340 c3        1 MOL     -0.631321
    118 O18         3.1990   -0.5590   -1.8910 oh        1 MOL     -0.551820
    119 H53         1.8120   -1.8140   -0.1610 hn        1 MOL      0.315708
    120 H54         3.8950   -3.6550   -0.7980 h1        1 MOL      0.067314
    121 H55         4.4440   -2.0230   -2.5920 h1        1 MOL      0.025603
    122 H56         2.2580   -0.3940   -1.8280 ho        1 MOL      0.403298
    123 H57         2.5620   -2.2550   -3.8740 hc        1 MOL      0.183554
    124 H58         2.7130   -3.6490   -2.8430 hc        1 MOL      0.183554
    125 H59         1.5000   -2.3000   -2.4260 hc        1 MOL      0.183554
    126 N11         6.0910   -2.5410   -0.4090 n         1 MOL     -0.421725
    127 C39         7.3590   -2.0980    0.1230 c3        1 MOL      0.001539
    128 C40         7.5030   -0.6200    0.1660 c         1 MOL      0.244336
    129 O19         8.3270   -0.2060    0.9970 o         1 MOL     -0.496317
    130 C41         8.6870   -2.7090   -0.5700 c3        1 MOL      0.346866
    131 C42         9.0700   -4.2330   -0.4600 c3        1 MOL     -0.447058
    132 O20         8.8380   -2.3660   -1.9480 oh        1 MOL     -0.602579
    133 H60         6.1000   -3.1850   -1.1960 hn        1 MOL      0.272637
    134 H61         7.4300   -2.4640    1.1490 h1        1 MOL      0.117606
    135 H62         9.4230   -2.2450    0.0830 h1        1 MOL      0.015590
    136 H63         9.7340   -2.0850   -2.1410 ho        1 MOL      0.344841
    137 H64         9.0780   -4.6210    0.5570 hc        1 MOL      0.128190
    138 H65         8.3450   -4.8310   -1.0300 hc        1 MOL      0.128190
    139 H66        10.0660   -4.4130   -0.8740 hc        1 MOL      0.128190
    140 N12         6.8930    0.1530   -0.7700 n         1 MOL      0.040901
    141 C43         6.8250    1.5840   -0.8650 c3        1 MOL     -0.018622
    142 C44         5.8830    2.1630    0.1650 c         1 MOL      0.410741
    143 O21         6.3410    3.0020    0.8930 o         1 MOL     -0.476281
    144 C45         6.4930    2.0060   -2.3030 c3        1 MOL     -0.319286
    145 C46         7.1410    1.2760   -3.5250 c3        1 MOL      0.041851
    146 C47         8.6840    1.3220   -3.4100 c3        1 MOL      0.104235
    147 C48         9.4020    0.4570   -4.4900 c3        1 MOL     -0.059870
    148 N13        10.8870    0.4690   -4.3080 n4        1 MOL     -0.259516
    149 H67         6.5180   -0.4400   -1.4930 hn        1 MOL      0.160470
    150 H68         7.8020    2.0210   -0.6330 h1        1 MOL      0.042197
    151 H69         6.6920    3.0600   -2.4930 hc        1 MOL      0.128206
    152 H70         5.4300    1.7900   -2.4500 hc        1 MOL      0.128206
    153 H71         6.8690    1.7420   -4.4790 hc        1 MOL      0.002900
    154 H72         6.9010    0.2120   -3.4790 hc        1 MOL      0.002900
    155 H73         9.0100    0.8660   -2.4740 hc        1 MOL      0.004317
    156 H74         8.9020    2.3910   -3.4330 hc        1 MOL      0.004317
    157 H75         9.1820    0.8160   -5.4940 hx        1 MOL      0.095610
    158 H76         8.9910   -0.5450   -4.4620 hx        1 MOL      0.095610
    159 H77        11.3850   -0.0110   -5.0360 hn        1 MOL      0.269515
    160 H78        11.1710    1.4370   -4.2180 hn        1 MOL      0.269515
    161 H79        11.1140   -0.0450   -3.4790 hn        1 MOL      0.269515
    162 N14         4.6460    1.6260    0.2160 n         1 MOL     -0.239850
    163 C49         3.8220    1.9800    1.3600 c3        1 MOL     -0.259861
    164 C50         4.3840    1.6870    2.7320 c         1 MOL      0.494268
    165 O22         4.2410    2.4260    3.6440 o         1 MOL     -0.563450
    166 C51         2.4440    1.3010    1.1840 c3        1 MOL      0.105692
    167 C52         1.7580    1.7000   -0.1560 c3        1 MOL     -0.071632
    168 C53         0.4840    0.9170   -0.4620 c         1 MOL      0.698619
    169 O23        -0.6440    1.5270   -0.4590 o         1 MOL     -0.732791
    170 O24         0.5890   -0.2890   -0.7940 o         1 MOL     -0.732791
    171 H80         4.2580    0.9490   -0.4360 hn        1 MOL      0.233136
    172 H81         3.6630    3.0460    1.2400 h1        1 MOL      0.133561
    173 H82         1.8960    1.6370    2.0630 hc        1 MOL      0.028010
    174 H83         2.5950    0.2270    1.0890 hc        1 MOL      0.028010
    175 H84         2.4470    1.5310   -0.9870 hc        1 MOL     -0.020780
    176 H85         1.5080    2.7520   -0.0910 hc        1 MOL     -0.020780
    177 N15         5.1130    0.6040    2.8950 n         1 MOL     -0.024248
    178 C54         5.8480    0.1140    4.0860 c3        1 MOL     -0.270669
    179 H86         5.9470    0.9230    4.8100 h1        1 MOL      0.102024
    180 H87         5.2980   -0.7110    4.5390 h1        1 MOL      0.102024
    181 H88         6.8380   -0.2290    3.7880 h1        1 MOL      0.102024
    182 H89         5.3530    0.1510    2.0250 hn        1 MOL      0.139764
    183 Ca1        -2.0900   -0.7140   -1.4640 Ca        1 MOL      1.802153
    184 O25        -1.0250   -2.9670   -2.1730 oh        1 MOL     -0.917482
    185 H90        -1.4480   -3.7650   -2.4780 ho        1 MOL      0.420340
    186 H91        -0.4670   -2.6930   -2.9080 ho        1 MOL      0.420340
    187 O26        -0.9790   -0.4130   -4.1600 oh        1 MOL     -0.917482
    188 H92        -0.6730   -0.6420   -5.0410 ho        1 MOL      0.420340
    189 H93        -1.5830    0.3150   -4.3000 ho        1 MOL      0.420340
@<TRIPOS>BOND
     1    1    2 1   
     2    1    4 1   
     3    1    5 1   
     4    1    6 1   
     5    2    3 2   
     6    2    7 1   
     7    7    8 1   
     8    7   15 1   
     9    8    9 1   
    10    8   11 1   
    11    8   16 1   
    12    9   10 2   
    13    9   19 1   
    14   11   12 1   
    15   11   17 1   
    16   11   18 1   
    17   12   13 1   
    18   12   14 1   
    19   19   20 1   
    20   19   28 1   
    21   20   21 1   
    22   20   23 1   
    23   20   29 1   
    24   21   22 2   
    25   21   41 1   
    26   23   24 1   
    27   23   30 1   
    28   23   31 1   
    29   24   25 1   
    30   24   32 1   
    31   24   33 1   
    32   25   26 1   
    33   25   34 1   
    34   25   35 1   
    35   26   27 1   
    36   26   36 1   
    37   26   37 1   
    38   27   38 1   
    39   27   39 1   
    40   27   40 1   
    41   41   42 1   
    42   41   49 1   
    43   42   43 1   
    44   42   45 1   
    45   42   50 1   
    46   43   44 2   
    47   43   53 1   
    48   45   46 1   
    49   45   51 1   
    50   45   52 1   
    51   46   47 1   
    52   46   48 1   
    53   53   54 1   
    54   53   57 1   
    55   54   55 1   
    56   54   58 1   
    57   54   59 1   
    58   55   56 2   
    59   55   60 1   
    60   60   61 1   
    61   60   68 1   
    62   61   62 1   
    63   61   64 1   
    64   61   69 1   
    65   62   63 2   
    66   62   72 1   
    67   64   65 1   
    68   64   70 1   
    69   64   71 1   
    70   65   66 1   
    71   65   67 1   
    72   72   73 1   
    73   72   76 1   
    74   73   74 1   
    75   73   77 1   
    76   73   78 1   
    77   74   75 2   
    78   74   79 1   
    79   79   80 1   
    80   79   86 1   
    81   80   81 1   
    82   80   83 1   
    83   80   87 1   
    84   81   82 2   
    85   81   93 1   
    86   83   84 1   
    87   83   85 1   
    88   83   88 1   
    89   84   90 1   
    90   84   91 1   
    91   84   92 1   
    92   85   89 1   
    93   93   94 1   
    94   93  101 1   
    95   94   95 1   
    96   94   97 1   
    97   94  102 1   
    98   95   96 2   
    99   95  112 1   
   100   97   98 1   
   101   97   99 1   
   102   97  103 1   
   103   98  100 1   
   104   98  104 1   
   105   98  105 1   
   106   99  106 1   
   107   99  107 1   
   108   99  108 1   
   109  100  109 1   
   110  100  110 1   
   111  100  111 1   
   112  112  113 1   
   113  112  119 1   
   114  113  114 1   
   115  113  116 1   
   116  113  120 1   
   117  114  115 2   
   118  114  126 1   
   119  116  117 1   
   120  116  118 1   
   121  116  121 1   
   122  117  123 1   
   123  117  124 1   
   124  117  125 1   
   125  118  122 1   
   126  126  127 1   
   127  126  133 1   
   128  127  128 1   
   129  127  130 1   
   130  127  134 1   
   131  128  129 2   
   132  128  140 1   
   133  130  131 1   
   134  130  132 1   
   135  130  135 1   
   136  131  137 1   
   137  131  138 1   
   138  131  139 1   
   139  132  136 1   
   140  140  141 1   
   141  140  149 1   
   142  141  142 1   
   143  141  144 1   
   144  141  150 1   
   145  142  143 2   
   146  142  162 1   
   147  144  145 1   
   148  144  151 1   
   149  144  152 1   
   150  145  146 1   
   151  145  153 1   
   152  145  154 1   
   153  146  147 1   
   154  146  155 1   
   155  146  156 1   
   156  147  148 1   
   157  147  157 1   
   158  147  158 1   
   159  148  159 1   
   160  148  160 1   
   161  148  161 1   
   162  162  163 1   
   163  162  171 1   
   164  163  164 1   
   165  163  166 1   
   166  163  172 1   
   167  164  165 2   
   168  164  177 1   
   169  166  167 1   
   170  166  173 1   
   171  166  174 1   
   172  167  168 1   
   173  167  175 1   
   174  167  176 1   
   175  168  169 1   
   176  168  170 1   
   177  177  178 1   
   178  177  182 1   
   179  178  179 1   
   180  178  180 1   
   181  178  181 1   
   182  184  185 1   
   183  184  186 1   
   184  187  188 1   
   185  187  189 1   
@<TRIPOS>SUBSTRUCTURE
     1 MOL         1 TEMP              0 ****  ****    0 ROOT
