@<TRIPOS>MOLECULE
MOL
  175   173     1     0     0
SMALL
resp


@<TRIPOS>ATOM
      1 C1          0.0270   -3.5400    5.5820 c3        1 MOL     -0.456493
      2 C2          0.4380   -3.4030    4.1460 c         1 MOL      0.753616
      3 O1         -0.3730   -3.1760    3.2580 o         1 MOL     -0.508709
      4 H1          0.5910   -2.8330    6.1900 hc        1 MOL      0.111552
      5 H2         -1.0390   -3.3320    5.6770 hc        1 MOL      0.111552
      6 H3          0.2310   -4.5550    5.9240 hc        1 MOL      0.111552
      7 N1          1.7490   -3.6510    3.9360 n         1 MOL     -0.615614
      8 C3          2.3820   -3.5440    2.6960 c3        1 MOL      0.162005
      9 C4          2.3550   -4.7670    1.7700 c         1 MOL      0.536446
     10 O2          2.4580   -5.9510    2.1190 o         1 MOL     -0.608290
     11 C5          3.8420   -3.1010    2.9320 c3        1 MOL     -0.187740
     12 C6          4.3160   -2.0930    1.8980 c         1 MOL      0.757041
     13 O3          5.3200   -1.3870    2.2200 o         1 MOL     -0.685256
     14 O4          3.7410   -1.9890    0.7840 o         1 MOL     -0.685256
     15 H4          2.4820   -3.5740    4.6270 hn        1 MOL      0.307757
     16 H5          1.8290   -2.8140    2.1100 h1        1 MOL      0.027022
     17 H6          4.5850   -3.8960    2.9970 hc        1 MOL      0.049389
     18 H7          3.9990   -2.5750    3.8800 hc        1 MOL      0.049389
     19 N2          2.2610   -4.4860    0.4550 n         1 MOL     -0.460878
     20 C7          2.3020   -5.3850   -0.6830 c3        1 MOL      0.412216
     21 C8          3.4120   -5.0020   -1.6730 c         1 MOL      0.232172
     22 O5          3.6570   -5.7780   -2.6060 o         1 MOL     -0.524792
     23 C9          0.9000   -5.4440   -1.2520 c3        1 MOL     -0.155552
     24 H8          2.1840   -3.4850    0.3340 hn        1 MOL      0.289619
     25 H9          2.5080   -6.4230   -0.4230 h1        1 MOL     -0.003516
     26 H10         0.7960   -4.7780   -2.1070 hc        1 MOL      0.033346
     27 H11         0.6440   -6.4190   -1.6440 hc        1 MOL      0.033346
     28 H12         0.2000   -5.1860   -0.4500 hc        1 MOL      0.033346
     29 N3          3.9720   -3.7590   -1.5770 n         1 MOL     -0.094708
     30 C10         4.8960   -3.3260   -2.6610 c3        1 MOL      0.037075
     31 C11         6.1080   -2.4820   -2.1720 c         1 MOL      0.413522
     32 O6          7.0040   -2.0950   -2.9310 o         1 MOL     -0.530935
     33 C12         4.1540   -2.5640   -3.7820 c3        1 MOL     -0.055258
     34 C13         3.2820   -1.4000   -3.4300 c         1 MOL      0.813077
     35 O7          2.6600   -0.8840   -4.3860 o         1 MOL     -0.729717
     36 O8          3.0900   -1.0070   -2.2610 o         1 MOL     -0.729717
     37 H13         3.8530   -3.1500   -0.7780 hn        1 MOL     -0.044492
     38 H14         5.3040   -4.2290   -3.1150 h1        1 MOL      0.066674
     39 H15         3.5140   -3.1640   -4.4150 hc        1 MOL     -0.001453
     40 H16         4.9050   -2.1420   -4.4490 hc        1 MOL     -0.001453
     41 N4          6.1020   -2.0300   -0.9330 n         1 MOL     -0.349437
     42 C14         7.2270   -1.2230   -0.4420 c3        1 MOL     -0.145706
     43 C15         7.3620    0.2230   -0.9670 c         1 MOL      0.460186
     44 O9          8.3850    0.9040   -0.9170 o         1 MOL     -0.600632
     45 H17         5.3440   -2.1600   -0.2800 hn        1 MOL      0.287143
     46 H18         8.2070   -1.6870   -0.5110 h1        1 MOL      0.098097
     47 H19         7.0660   -1.1100    0.6260 h1        1 MOL      0.098097
     48 N5          6.2260    0.6240   -1.5300 n         1 MOL     -0.125023
     49 C16         6.0400    1.9310   -2.1810 c3        1 MOL     -0.084713
     50 C17         6.0670    3.1150   -1.1340 c         1 MOL      0.394632
     51 O10         5.7410    4.2470   -1.5610 o         1 MOL     -0.487388
     52 C18         4.8470    2.0250   -3.1340 c3        1 MOL     -0.056141
     53 C19         3.5090    2.0590   -2.4530 c         1 MOL      0.296775
     54 N6          2.5000    2.3690   -3.2440 n         1 MOL     -0.547662
     55 O11         3.3490    1.8930   -1.2360 o         1 MOL     -0.093718
     56 H20         5.4960   -0.0770   -1.5410 hn        1 MOL      0.190730
     57 H21         6.9290    2.1400   -2.7870 h1        1 MOL      0.102060
     58 H22         4.9080    1.1450   -3.7700 hc        1 MOL      0.040854
     59 H23         4.9640    2.8760   -3.7930 hc        1 MOL      0.040854
     60 H24         2.7370    2.4920   -4.2180 hn        1 MOL      0.323792
     61 H25         1.5640    2.1250   -2.9340 hn        1 MOL      0.323792
     62 N7          6.4050    2.8870    0.1370 n         1 MOL     -0.186151
     63 C20         6.3760    3.9390    1.1580 c3        1 MOL     -0.218113
     64 C21         5.0380    4.6160    1.5020 c         1 MOL      0.549472
     65 O12         4.9530    5.5980    2.2060 o         1 MOL     -0.588873
     66 H26         6.7290    1.9540    0.3660 hn        1 MOL      0.242040
     67 H27         7.0370    4.7610    0.8960 h1        1 MOL      0.103284
     68 H28         6.7420    3.5440    2.1050 h1        1 MOL      0.103284
     69 N8          3.9220    4.0520    1.0560 n         1 MOL      0.062804
     70 C22         2.5050    4.5410    1.2960 c3        1 MOL     -0.511650
     71 C23         1.3820    3.4940    1.5830 c         1 MOL      0.803594
     72 O13         1.5270    2.4240    0.9370 o         1 MOL     -0.627043
     73 C24         2.0750    5.3990    0.1130 c3        1 MOL      0.648796
     74 C25         2.5460    6.8460    0.2520 c3        1 MOL     -0.543869
     75 O14         2.4080    4.8600   -1.1340 oh        1 MOL     -0.588731
     76 H29         4.0560    3.2550    0.4580 hn        1 MOL     -0.200248
     77 H30         2.5640    5.1880    2.1730 h1        1 MOL      0.147129
     78 H31         0.9940    5.4110    0.0320 h1        1 MOL     -0.044834
     79 H32         2.3180    3.9060   -1.1370 ho        1 MOL      0.306302
     80 H33         1.9670    7.4870   -0.4150 hc        1 MOL      0.132493
     81 H34         2.3620    7.1830    1.2720 hc        1 MOL      0.132493
     82 H35         3.6030    6.9050   -0.0080 hc        1 MOL      0.132493
     83 N9          0.3200    3.6210    2.3870 n         1 MOL     -0.663757
     84 C26        -0.7280    2.5950    2.3550 c3        1 MOL      0.014139
     85 C27        -1.6100    2.8840    1.0950 c         1 MOL      0.622453
     86 O15        -2.1610    3.9310    0.9230 o         1 MOL     -0.597843
     87 C28        -1.7480    2.5850    3.5160 c3        1 MOL      0.242901
     88 C29        -1.0980    2.3160    4.8210 c3        1 MOL      0.008794
     89 C30        -2.9120    1.5430    3.3270 c3        1 MOL     -0.387852
     90 C31        -1.7240    2.7400    6.1250 c3        1 MOL     -0.036123
     91 H36         0.1960    4.4770    2.9110 hn        1 MOL      0.332979
     92 H37        -0.3130    1.5920    2.2540 h1        1 MOL      0.056855
     93 H38        -2.1320    3.6080    3.5410 hc        1 MOL     -0.030085
     94 H39        -0.1090    2.7440    4.8950 hc        1 MOL     -0.003887
     95 H40        -1.0440    1.2230    4.8930 hc        1 MOL     -0.003887
     96 H41        -2.5380    0.5710    3.0150 hc        1 MOL      0.084684
     97 H42        -3.5090    1.4000    4.2340 hc        1 MOL      0.084684
     98 H43        -3.5350    1.9110    2.5150 hc        1 MOL      0.084684
     99 H44        -2.7640    2.4430    6.1810 hc        1 MOL     -0.002035
    100 H45        -1.2040    2.2990    6.9770 hc        1 MOL     -0.002035
    101 H46        -1.7830    3.8240    6.2350 hc        1 MOL     -0.002035
    102 N10        -1.7870    1.8150    0.2490 n         1 MOL     -0.146552
    103 C32        -2.6450    1.8060   -0.9810 c3        1 MOL     -0.031143
    104 C33        -4.1240    1.3820   -0.7540 c         1 MOL      0.393891
    105 O16        -4.4060    0.6360    0.1710 o         1 MOL     -0.304344
    106 C34        -1.9310    0.8810   -1.9940 c3        1 MOL     -0.407258
    107 C35        -0.5180    1.2720   -2.3190 c         1 MOL      0.833937
    108 O17        -0.2780    2.2450   -3.0930 o         1 MOL     -0.707449
    109 O18         0.4810    0.6970   -1.8130 o         1 MOL     -0.707449
    110 H47        -1.3380    0.9360    0.4880 hn        1 MOL      0.028698
    111 H48        -2.6810    2.8280   -1.3490 h1        1 MOL      0.086157
    112 H49        -2.4510    0.7140   -2.9420 hc        1 MOL      0.121837
    113 H50        -2.0220   -0.1060   -1.5420 hc        1 MOL      0.121837
    114 N11        -5.0970    1.7940   -1.5610 n         1 MOL     -0.583206
    115 C36        -6.4970    1.5670   -1.2330 c3        1 MOL      0.519406
    116 C37        -6.8450    0.0420   -1.1760 c         1 MOL      0.170283
    117 O19        -7.6620   -0.3100   -0.3150 o         1 MOL     -0.436909
    118 C38        -7.4440    2.3130   -2.1790 c3        1 MOL     -0.346814
    119 C39        -8.9040    2.0320   -1.9580 ca        1 MOL      0.153517
    120 C40        -9.6990    1.4110   -2.9300 ca        1 MOL     -0.153549
    121 C41        -9.5350    2.5130   -0.7870 ca        1 MOL     -0.153549
    122 C42       -11.0640    1.1140   -2.6700 ca        1 MOL     -0.191931
    123 C43       -10.8210    2.1030   -0.4490 ca        1 MOL     -0.191931
    124 C44       -11.5620    1.3680   -1.3990 ca        1 MOL     -0.009310
    125 H51        -4.8590    2.4240   -2.3180 hn        1 MOL      0.308742
    126 H52        -6.5450    2.0040   -0.2290 h1        1 MOL      0.005160
    127 H53        -7.2160    1.9800   -3.1970 hc        1 MOL      0.086726
    128 H54        -7.2320    3.3710   -2.0520 hc        1 MOL      0.086726
    129 H55        -9.2680    1.1450   -3.8870 ha        1 MOL      0.119266
    130 H56        -9.0020    3.2240   -0.1730 ha        1 MOL      0.119266
    131 H57       -11.5470    0.4960   -3.4150 ha        1 MOL      0.134678
    132 H58       -11.2280    2.3420    0.5140 ha        1 MOL      0.134678
    133 H59       -12.5500    0.9880   -1.2040 ha        1 MOL      0.072191
    134 N12        -6.1750   -0.8810   -1.9240 n         1 MOL      0.049975
    135 C45        -6.4210   -2.2730   -1.6180 c3        1 MOL     -0.001462
    136 C46        -5.8600   -2.7240   -0.2670 c         1 MOL      0.191603
    137 O20        -6.3620   -3.6860    0.3440 o         1 MOL     -0.474100
    138 C47        -5.7020   -3.0250   -2.6930 c3        1 MOL      0.102085
    139 C48        -5.8510   -2.0740   -3.9350 c3        1 MOL     -0.224395
    140 C49        -5.4400   -0.7800   -3.1320 c3        1 MOL     -0.001224
    141 H60        -7.4940   -2.4830   -1.6330 h1        1 MOL      0.063582
    142 H61        -4.6450   -3.1710   -2.4950 hc        1 MOL      0.015315
    143 H62        -6.1760   -3.9880   -2.9110 hc        1 MOL      0.015315
    144 H63        -5.0810   -2.4570   -4.6080 hc        1 MOL      0.073742
    145 H64        -6.8430   -2.0270   -4.3770 hc        1 MOL      0.073742
    146 H65        -4.3840   -0.6630   -2.8880 h1        1 MOL      0.020694
    147 H66        -5.7360    0.1360   -3.6380 h1        1 MOL      0.020694
    148 N13        -4.7040   -2.1810    0.0980 n         1 MOL     -0.048017
    149 C50        -3.9700   -2.5190    1.3230 c3        1 MOL     -0.173095
    150 C51        -4.8620   -2.0940    2.5240 c         1 MOL      0.427822
    151 O21        -4.9600   -2.7750    3.5640 o         1 MOL     -0.572371
    152 C52        -2.5900   -1.7720    1.4090 c3        1 MOL      0.224971
    153 C53        -1.6730   -2.3890    0.3830 c3        1 MOL     -0.400867
    154 C54        -0.3500   -1.6120    0.3200 c         1 MOL      0.701580
    155 O22         0.7210   -2.0850   -0.0790 o         1 MOL     -0.662056
    156 O23        -0.2170   -0.4500    0.7300 o         1 MOL     -0.662056
    157 H67        -4.3090   -1.4960   -0.5300 hn        1 MOL      0.134898
    158 H68        -3.7390   -3.5830    1.4210 h1        1 MOL      0.116806
    159 H69        -2.2450   -1.8920    2.4300 hc        1 MOL     -0.001317
    160 H70        -2.7140   -0.6910    1.3040 hc        1 MOL     -0.001317
    161 H71        -2.1150   -2.2930   -0.6110 hc        1 MOL      0.120802
    162 H72        -1.4540   -3.4150    0.6460 hc        1 MOL      0.120802
    163 N14        -5.4920   -0.9360    2.4430 n         1 MOL      0.001030
    164 C55        -6.4240   -0.3250    3.3880 c3        1 MOL     -0.119050
    165 H73        -5.8640    0.2130    4.1520 h1        1 MOL      0.055261
    166 H74        -7.0750    0.3700    2.8580 h1        1 MOL      0.055261
    167 H75        -7.0260   -1.1020    3.8580 h1        1 MOL      0.055261
    168 H76        -5.2750   -0.4020    1.6160 hn        1 MOL      0.018427
    169 Ca1         2.2100   -0.0840   -0.0860 Ca        1 MOL      1.480386
    170 O24         1.7170   -0.2150    2.6410 oh        1 MOL     -0.684245
    171 H77         1.6210   -0.1480    3.5880 ho        1 MOL      0.339594
    172 H78         0.8360   -0.4120    2.3230 ho        1 MOL      0.339594
    173 O25         4.4670    0.7360    1.0060 oh        1 MOL     -0.684245
    174 H79         4.8880   -0.0230    1.4230 ho        1 MOL      0.339594
    175 H80         4.6130    1.4550    1.6150 ho        1 MOL      0.339594
@<TRIPOS>BOND
     1    1    2 1   
     2    1    4 1   
     3    1    5 1   
     4    1    6 1   
     5    2    3 2   
     6    2    7 1   
     7    7    8 1   
     8    7   15 1   
     9    8    9 1   
    10    8   11 1   
    11    8   16 1   
    12    9   10 2   
    13    9   19 1   
    14   11   12 1   
    15   11   17 1   
    16   11   18 1   
    17   12   13 1   
    18   12   14 1   
    19   19   20 1   
    20   19   24 1   
    21   20   21 1   
    22   20   23 1   
    23   20   25 1   
    24   21   22 2   
    25   21   29 1   
    26   23   26 1   
    27   23   27 1   
    28   23   28 1   
    29   29   30 1   
    30   29   37 1   
    31   30   31 1   
    32   30   33 1   
    33   30   38 1   
    34   31   32 2   
    35   31   41 1   
    36   33   34 1   
    37   33   39 1   
    38   33   40 1   
    39   34   35 1   
    40   34   36 1   
    41   41   42 1   
    42   41   45 1   
    43   42   43 1   
    44   42   46 1   
    45   42   47 1   
    46   43   44 2   
    47   43   48 1   
    48   48   49 1   
    49   48   56 1   
    50   49   50 1   
    51   49   52 1   
    52   49   57 1   
    53   50   51 2   
    54   50   62 1   
    55   52   53 1   
    56   52   58 1   
    57   52   59 1   
    58   53   54 1   
    59   53   55 2   
    60   54   60 1   
    61   54   61 1   
    62   62   63 1   
    63   62   66 1   
    64   63   64 1   
    65   63   67 1   
    66   63   68 1   
    67   64   65 2   
    68   64   69 1   
    69   69   70 1   
    70   69   76 1   
    71   70   71 1   
    72   70   73 1   
    73   70   77 1   
    74   71   72 2   
    75   71   83 1   
    76   73   74 1   
    77   73   75 1   
    78   73   78 1   
    79   74   80 1   
    80   74   81 1   
    81   74   82 1   
    82   75   79 1   
    83   83   84 1   
    84   83   91 1   
    85   84   85 1   
    86   84   87 1   
    87   84   92 1   
    88   85   86 2   
    89   85  102 1   
    90   87   88 1   
    91   87   89 1   
    92   87   93 1   
    93   88   90 1   
    94   88   94 1   
    95   88   95 1   
    96   89   96 1   
    97   89   97 1   
    98   89   98 1   
    99   90   99 1   
   100   90  100 1   
   101   90  101 1   
   102  102  103 1   
   103  102  110 1   
   104  103  104 1   
   105  103  106 1   
   106  103  111 1   
   107  104  105 2   
   108  104  114 1   
   109  106  107 1   
   110  106  112 1   
   111  106  113 1   
   112  107  108 1   
   113  107  109 1   
   114  114  115 1   
   115  114  125 1   
   116  115  116 1   
   117  115  118 1   
   118  115  126 1   
   119  116  117 2   
   120  116  134 1   
   121  118  119 1   
   122  118  127 1   
   123  118  128 1   
   124  119  120 ar  
   125  119  121 ar  
   126  120  122 ar  
   127  120  129 1   
   128  121  123 ar  
   129  121  130 1   
   130  122  124 ar  
   131  122  131 1   
   132  123  124 ar  
   133  123  132 1   
   134  124  133 1   
   135  134  135 1   
   136  134  140 1   
   137  135  136 1   
   138  135  138 1   
   139  135  141 1   
   140  136  137 2   
   141  136  148 1   
   142  138  139 1   
   143  138  142 1   
   144  138  143 1   
   145  139  140 1   
   146  139  144 1   
   147  139  145 1   
   148  140  146 1   
   149  140  147 1   
   150  148  149 1   
   151  148  157 1   
   152  149  150 1   
   153  149  152 1   
   154  149  158 1   
   155  150  151 2   
   156  150  163 1   
   157  152  153 1   
   158  152  159 1   
   159  152  160 1   
   160  153  154 1   
   161  153  161 1   
   162  153  162 1   
   163  154  155 1   
   164  154  156 1   
   165  163  164 1   
   166  163  168 1   
   167  164  165 1   
   168  164  166 1   
   169  164  167 1   
   170  170  171 1   
   171  170  172 1   
   172  173  174 1   
   173  173  175 1   
@<TRIPOS>SUBSTRUCTURE
     1 MOL         1 TEMP              0 ****  ****    0 ROOT
