@<TRIPOS>MOLECULE
MOL
  189   185     1     0     0
SMALL
resp


@<TRIPOS>ATOM
      1 C1          0.2270    3.2940   -5.0870 c3        1 MOL     -0.461928
      2 C2          0.5410    2.6280   -3.7490 c         1 MOL      0.687638
      3 O1         -0.2550    2.8150   -2.8540 o         1 MOL     -0.576093
      4 H1          0.1800    4.3740   -4.9520 hc        1 MOL      0.113068
      5 H2          1.0090    3.0530   -5.8070 hc        1 MOL      0.113068
      6 H3         -0.7320    2.9330   -5.4580 hc        1 MOL      0.113068
      7 N1          1.6390    1.8860   -3.6770 n         1 MOL     -0.516269
      8 C3          2.1970    1.3150   -2.4890 c3        1 MOL      0.038222
      9 C4          3.0680    2.3620   -1.8470 c         1 MOL      0.429275
     10 O2          4.3140    2.4250   -2.0150 o         1 MOL     -0.504397
     11 C5          3.1090    0.1930   -2.9060 c3        1 MOL     -0.037129
     12 C6          3.6670   -0.5790   -1.6290 c         1 MOL      0.632999
     13 O3          4.6010   -1.4040   -1.7320 o         1 MOL     -0.670121
     14 O4          3.1780   -0.2780   -0.5160 o         1 MOL     -0.670121
     15 H4          2.2140    1.8200   -4.5120 hn        1 MOL      0.316147
     16 H5          1.3860    0.9790   -1.8480 h1        1 MOL      0.077451
     17 H6          3.8390    0.5290   -3.6450 hc        1 MOL      0.010259
     18 H7          2.4990   -0.5490   -3.4360 hc        1 MOL      0.010259
     19 N2          2.4740    3.2440   -1.0070 n         1 MOL     -0.358448
     20 C7          3.0490    4.5450   -0.6680 c3        1 MOL      0.036530
     21 C8          4.0280    4.5100    0.5830 c         1 MOL      0.464706
     22 O5          4.8170    5.4760    0.6080 o         1 MOL     -0.596581
     23 C9          1.8650    5.5690   -0.3890 c3        1 MOL      0.141437
     24 C10         2.1950    7.1030   -0.4400 c3        1 MOL     -0.220707
     25 C11         2.8610    7.5660   -1.7270 c3        1 MOL      0.033546
     26 C12         3.3730    9.0330   -1.5050 c3        1 MOL      0.037513
     27 N3          4.0940    9.4280   -2.7710 n4        1 MOL     -0.348399
     28 H8          1.5350    3.0440   -0.7180 hn        1 MOL      0.266277
     29 H9          3.6580    4.8930   -1.4950 h1        1 MOL      0.075381
     30 H10         1.4790    5.2510    0.5770 hc        1 MOL     -0.006147
     31 H11         1.0790    5.3160   -1.1080 hc        1 MOL     -0.006147
     32 H12         2.9240    7.1770    0.3690 hc        1 MOL      0.062728
     33 H13         1.2790    7.6500   -0.2050 hc        1 MOL      0.062728
     34 H14         2.1360    7.6150   -2.5410 hc        1 MOL      0.015242
     35 H15         3.5660    6.8170   -2.0870 hc        1 MOL      0.015242
     36 H16         4.0130    9.1820   -0.6350 hx        1 MOL      0.091295
     37 H17         2.5050    9.6380   -1.2610 hx        1 MOL      0.091295
     38 H18         4.5580   10.3270   -2.6690 hn        1 MOL      0.323809
     39 H19         4.7010    8.6780   -3.0510 hn        1 MOL      0.323809
     40 H20         3.4360    9.4940   -3.5330 hn        1 MOL      0.323809
     41 N4          4.0410    3.4850    1.4360 n         1 MOL     -0.259479
     42 C13         5.0000    3.2270    2.5560 c3        1 MOL     -0.128775
     43 C14         6.0540    2.2070    2.0530 c         1 MOL      0.502485
     44 O6          7.0430    2.0680    2.7040 o         1 MOL     -0.510513
     45 C15         4.2650    2.7630    3.8250 c3        1 MOL     -0.161199
     46 C16         3.3450    1.5640    3.6780 c         1 MOL      0.729180
     47 O7          3.1510    1.1140    2.5030 o         1 MOL     -0.684272
     48 O8          2.7740    1.0240    4.6310 o         1 MOL     -0.684272
     49 H21         3.2960    2.8070    1.3100 hn        1 MOL      0.207701
     50 H22         5.3700    4.2280    2.8070 h1        1 MOL      0.128527
     51 H23         3.6650    3.4450    4.4170 hc        1 MOL      0.064279
     52 H24         4.9930    2.5540    4.6210 hc        1 MOL      0.064279
     53 N5          5.8720    1.5450    0.8770 n         1 MOL     -0.078734
     54 C17         6.9560    0.7440    0.2770 c3        1 MOL     -0.420822
     55 C18         7.2480   -0.6660    0.7710 c         1 MOL      0.626044
     56 O9          8.4150   -1.0810    0.7240 o         1 MOL     -0.587002
     57 H25         5.0870    1.5550    0.2450 hn        1 MOL      0.116239
     58 H26         7.8730    1.3140    0.3870 h1        1 MOL      0.165384
     59 H27         6.7470    0.6340   -0.7950 h1        1 MOL      0.165384
     60 N6          6.2390   -1.3830    1.2010 n         1 MOL     -0.267740
     61 C19         6.3960   -2.8220    1.6340 c3        1 MOL     -0.013721
     62 C20         6.3460   -3.8860    0.5590 c         1 MOL      0.434381
     63 O10         6.6540   -5.0530    0.7570 o         1 MOL     -0.540777
     64 C21         5.3750   -3.2320    2.7820 c3        1 MOL     -0.181008
     65 C22         4.0190   -2.7170    2.4930 c         1 MOL      0.685229
     66 O11         3.6410   -2.7150    1.3280 o         1 MOL     -0.674438
     67 O12         3.2860   -2.3550    3.3860 o         1 MOL     -0.674438
     68 H28         5.3400   -1.1060    0.8210 hn        1 MOL      0.090430
     69 H29         7.4150   -3.0280    1.9680 h1        1 MOL      0.106091
     70 H30         5.7250   -2.8540    3.7490 hc        1 MOL      0.063177
     71 H31         5.3620   -4.3150    2.8820 hc        1 MOL      0.063177
     72 N7          5.9880   -3.4660   -0.6500 n         1 MOL     -0.271242
     73 C23         5.6540   -4.4200   -1.7530 c3        1 MOL     -0.165907
     74 C24         4.2250   -4.9280   -1.8050 c         1 MOL      0.632764
     75 O13         3.9650   -5.9420   -2.4780 o         1 MOL     -0.590371
     76 H32         5.7750   -2.4910   -0.7820 hn        1 MOL      0.268495
     77 H33         6.3280   -5.2600   -1.6200 h1        1 MOL      0.097214
     78 H34         6.0120   -3.9250   -2.6480 h1        1 MOL      0.097214
     79 N8          3.2680   -4.2610   -1.0750 n         1 MOL     -0.577749
     80 C25         1.8970   -4.6940   -1.0060 c3        1 MOL      0.009723
     81 C26         0.9110   -3.4440   -1.1600 c         1 MOL      0.605494
     82 O14         1.1370   -2.4080   -0.5640 o         1 MOL     -0.548364
     83 C27         1.6360   -5.4520    0.3170 c3        1 MOL      0.465447
     84 C28         1.5530   -6.8980   -0.0610 c3        1 MOL     -0.366339
     85 O15         2.6980   -5.3010    1.2000 oh        1 MOL     -0.582542
     86 H35         3.6080   -3.5640   -0.4260 hn        1 MOL      0.482433
     87 H36         1.7660   -5.3240   -1.8900 h1        1 MOL      0.077222
     88 H37         0.6840   -5.1330    0.7520 h1        1 MOL     -0.057624
     89 H38         2.8940   -4.3630    1.1630 ho        1 MOL      0.354058
     90 H39         2.3960   -7.3040   -0.6240 hc        1 MOL      0.082269
     91 H40         1.4300   -7.5740    0.7930 hc        1 MOL      0.082269
     92 H41         0.8130   -7.0830   -0.8380 hc        1 MOL      0.082269
     93 N9         -0.2640   -3.7640   -1.7210 n         1 MOL     -0.668849
     94 C29        -1.4350   -2.9330   -1.9490 c3        1 MOL      0.004158
     95 C30        -2.5150   -3.4590   -1.0080 c         1 MOL      0.650372
     96 O16        -3.0770   -4.5290   -1.0810 o         1 MOL     -0.544450
     97 C31        -1.7860   -2.9020   -3.4250 c3        1 MOL      0.018883
     98 C32        -0.7870   -1.8750   -4.0920 c3        1 MOL      0.111953
     99 C33        -3.2550   -2.3820   -3.4930 c3        1 MOL     -0.231527
    100 C34        -1.0870   -1.5500   -5.6050 c3        1 MOL     -0.375147
    101 H42        -0.3830   -4.6780   -2.1210 hn        1 MOL      0.323282
    102 H43        -1.2110   -1.9230   -1.6000 h1        1 MOL      0.093634
    103 H44        -1.7910   -3.8700   -3.9240 hc        1 MOL      0.066126
    104 H45         0.2230   -2.2710   -3.9510 hc        1 MOL      0.004943
    105 H46        -0.8410   -0.9430   -3.5190 hc        1 MOL      0.004943
    106 H47        -3.5030   -1.4650   -2.9580 hc        1 MOL      0.042595
    107 H48        -3.5800   -2.1430   -4.5050 hc        1 MOL      0.042595
    108 H49        -3.9000   -3.1530   -3.0810 hc        1 MOL      0.042595
    109 H50        -0.3320   -0.8400   -5.9570 hc        1 MOL      0.097335
    110 H51        -1.3150   -2.4390   -6.1880 hc        1 MOL      0.097335
    111 H52        -1.9400   -0.8780   -5.5570 hc        1 MOL      0.097335
    112 N10        -2.7950   -2.5820   -0.0170 n         1 MOL     -0.470105
    113 C35        -4.0180   -2.4550    0.8400 c3        1 MOL      0.002894
    114 C36        -5.3050   -2.0570    0.1640 c         1 MOL      0.544479
    115 O17        -5.2180   -1.4930   -0.8880 o         1 MOL     -0.428233
    116 C37        -3.7520   -1.6050    2.1340 c3        1 MOL      0.246850
    117 C38        -2.5200   -2.1770    2.8480 c3        1 MOL     -0.365997
    118 O18        -3.3870   -0.2910    1.7120 oh        1 MOL     -0.640823
    119 H53        -2.0870   -1.8810    0.1670 hn        1 MOL      0.288439
    120 H54        -4.3590   -3.4220    1.2090 h1        1 MOL      0.034701
    121 H55        -4.6400   -1.6310    2.7570 h1        1 MOL      0.034066
    122 H56        -2.4960   -0.3440    1.3530 ho        1 MOL      0.420619
    123 H57        -2.0950   -1.3910    3.4820 hc        1 MOL      0.105730
    124 H58        -2.8550   -3.0210    3.4490 hc        1 MOL      0.105730
    125 H59        -1.6870   -2.4810    2.2180 hc        1 MOL      0.105730
    126 N11        -6.4880   -2.1840    0.8340 n         1 MOL     -0.438191
    127 C39        -7.7890   -1.6820    0.2420 c3        1 MOL      0.055880
    128 C40        -7.6920   -0.1200    0.1220 c         1 MOL      0.485688
    129 O19        -8.0590    0.4400   -0.9020 o         1 MOL     -0.461534
    130 C41        -9.0630   -1.9780    1.1560 c3        1 MOL      0.384891
    131 C42       -10.2510   -2.1440    0.2530 c3        1 MOL     -0.201213
    132 O20        -8.9730   -3.1250    1.9320 oh        1 MOL     -0.625490
    133 H60        -6.5090   -2.5320    1.7780 hn        1 MOL      0.244337
    134 H61        -7.9990   -2.0810   -0.7480 h1        1 MOL      0.095088
    135 H62        -9.3010   -1.1110    1.7770 h1        1 MOL     -0.076543
    136 H63        -9.7820   -3.0720    2.4460 ho        1 MOL      0.397871
    137 H64       -11.1360   -2.2910    0.8740 hc        1 MOL      0.049564
    138 H65       -10.3000   -1.2440   -0.3730 hc        1 MOL      0.049564
    139 H66       -10.2020   -3.0220   -0.4000 hc        1 MOL      0.049564
    140 N12        -6.9790    0.5170    1.0620 n         1 MOL     -0.449125
    141 C43        -6.6970    1.9540    0.9880 c3        1 MOL      0.029506
    142 C44        -5.8530    2.2930   -0.2330 c         1 MOL      0.304411
    143 O21        -6.1470    3.3230   -0.8600 o         1 MOL     -0.508047
    144 C45        -6.0260    2.3660    2.2770 c3        1 MOL     -0.259493
    145 C46        -6.6050    3.6840    2.8130 c3        1 MOL      0.552853
    146 C47        -6.0050    4.1550    4.1460 c3        1 MOL     -0.413082
    147 C48        -5.9970    3.1670    5.2580 c3        1 MOL     -0.069526
    148 N13        -7.3210    2.7220    5.6540 n4        1 MOL     -0.344320
    149 H67        -6.6240   -0.0010    1.8560 hn        1 MOL      0.206829
    150 H68        -7.6040    2.5410    0.8440 h1        1 MOL      0.087551
    151 H69        -4.9450    2.4240    2.1430 hc        1 MOL      0.061728
    152 H70        -6.1030    1.5470    2.9910 hc        1 MOL      0.061728
    153 H71        -7.6650    3.5060    3.0040 hc        1 MOL     -0.100116
    154 H72        -6.5780    4.5590    2.1730 hc        1 MOL     -0.100116
    155 H73        -6.5240    5.0800    4.4040 hc        1 MOL      0.144201
    156 H74        -4.9800    4.4770    3.9370 hc        1 MOL      0.144201
    157 H75        -5.4390    3.6060    6.0840 hx        1 MOL      0.143030
    158 H76        -5.3530    2.3210    4.9740 hx        1 MOL      0.143030
    159 H77        -7.3860    2.1100    6.4580 hn        1 MOL      0.328081
    160 H78        -7.9360    3.5020    5.8140 hn        1 MOL      0.328081
    161 H79        -7.7650    2.3030    4.8540 hn        1 MOL      0.328081
    162 N14        -4.8640    1.4590   -0.5680 n         1 MOL     -0.069147
    163 C49        -4.0610    1.6450   -1.7450 c3        1 MOL     -0.206990
    164 C50        -4.7680    1.1960   -3.0380 c         1 MOL      0.528202
    165 O22        -4.3950    1.6720   -4.0810 o         1 MOL     -0.587786
    166 C51        -2.6200    1.0560   -1.5610 c3        1 MOL      0.072350
    167 C52        -1.8760    1.5980   -0.3520 c3        1 MOL     -0.015685
    168 C53        -0.6800    0.8020    0.2160 c         1 MOL      0.617390
    169 O23         0.4190    1.3600    0.4550 o         1 MOL     -0.690830
    170 O24        -0.8180   -0.3970    0.5780 o         1 MOL     -0.690830
    171 H80        -4.7170    0.6510    0.0140 hn        1 MOL      0.259177
    172 H81        -3.9500    2.7160   -1.9300 h1        1 MOL      0.116702
    173 H82        -2.0160    1.3200   -2.4250 hc        1 MOL      0.061735
    174 H83        -2.6170   -0.0260   -1.4460 hc        1 MOL      0.061735
    175 H84        -2.5840    1.6730    0.4810 hc        1 MOL     -0.011988
    176 H85        -1.6140    2.6510   -0.4530 hc        1 MOL     -0.011988
    177 N15        -5.7460    0.3830   -2.9490 n         1 MOL     -0.006978
    178 C54        -6.5890    0.0520   -4.0540 c3        1 MOL     -0.246989
    179 H86        -6.7870    0.9480   -4.6410 h1        1 MOL      0.088994
    180 H87        -6.0930   -0.6900   -4.6810 h1        1 MOL      0.088994
    181 H88        -7.5300   -0.3560   -3.6850 h1        1 MOL      0.088994
    182 H89        -6.0080    0.0530   -2.0310 hn        1 MOL      0.062071
    183 Ca1         1.7560   -0.7810    1.4910 Ca        1 MOL      1.737521
    184 O25         0.6490   -2.9800    2.6820 oh        1 MOL     -0.921733
    185 H90         1.5000   -3.3900    2.8590 ho        1 MOL      0.412956
    186 H91         0.0890   -3.2950    3.3860 ho        1 MOL      0.412956
    187 O26         0.6420    0.2630    3.7660 oh        1 MOL     -0.921733
    188 H92         0.1090    0.0520    4.5330 ho        1 MOL      0.412956
    189 H93         1.4490    0.6280    4.1320 ho        1 MOL      0.412956
@<TRIPOS>BOND
     1    1    2 1   
     2    1    4 1   
     3    1    5 1   
     4    1    6 1   
     5    2    3 2   
     6    2    7 1   
     7    7    8 1   
     8    7   15 1   
     9    8    9 1   
    10    8   11 1   
    11    8   16 1   
    12    9   10 2   
    13    9   19 1   
    14   11   12 1   
    15   11   17 1   
    16   11   18 1   
    17   12   13 1   
    18   12   14 1   
    19   19   20 1   
    20   19   28 1   
    21   20   21 1   
    22   20   23 1   
    23   20   29 1   
    24   21   22 2   
    25   21   41 1   
    26   23   24 1   
    27   23   30 1   
    28   23   31 1   
    29   24   25 1   
    30   24   32 1   
    31   24   33 1   
    32   25   26 1   
    33   25   34 1   
    34   25   35 1   
    35   26   27 1   
    36   26   36 1   
    37   26   37 1   
    38   27   38 1   
    39   27   39 1   
    40   27   40 1   
    41   41   42 1   
    42   41   49 1   
    43   42   43 1   
    44   42   45 1   
    45   42   50 1   
    46   43   44 2   
    47   43   53 1   
    48   45   46 1   
    49   45   51 1   
    50   45   52 1   
    51   46   47 1   
    52   46   48 1   
    53   53   54 1   
    54   53   57 1   
    55   54   55 1   
    56   54   58 1   
    57   54   59 1   
    58   55   56 2   
    59   55   60 1   
    60   60   61 1   
    61   60   68 1   
    62   61   62 1   
    63   61   64 1   
    64   61   69 1   
    65   62   63 2   
    66   62   72 1   
    67   64   65 1   
    68   64   70 1   
    69   64   71 1   
    70   65   66 1   
    71   65   67 1   
    72   72   73 1   
    73   72   76 1   
    74   73   74 1   
    75   73   77 1   
    76   73   78 1   
    77   74   75 2   
    78   74   79 1   
    79   79   80 1   
    80   79   86 1   
    81   80   81 1   
    82   80   83 1   
    83   80   87 1   
    84   81   82 2   
    85   81   93 1   
    86   83   84 1   
    87   83   85 1   
    88   83   88 1   
    89   84   90 1   
    90   84   91 1   
    91   84   92 1   
    92   85   89 1   
    93   93   94 1   
    94   93  101 1   
    95   94   95 1   
    96   94   97 1   
    97   94  102 1   
    98   95   96 2   
    99   95  112 1   
   100   97   98 1   
   101   97   99 1   
   102   97  103 1   
   103   98  100 1   
   104   98  104 1   
   105   98  105 1   
   106   99  106 1   
   107   99  107 1   
   108   99  108 1   
   109  100  109 1   
   110  100  110 1   
   111  100  111 1   
   112  112  113 1   
   113  112  119 1   
   114  113  114 1   
   115  113  116 1   
   116  113  120 1   
   117  114  115 2   
   118  114  126 1   
   119  116  117 1   
   120  116  118 1   
   121  116  121 1   
   122  117  123 1   
   123  117  124 1   
   124  117  125 1   
   125  118  122 1   
   126  126  127 1   
   127  126  133 1   
   128  127  128 1   
   129  127  130 1   
   130  127  134 1   
   131  128  129 2   
   132  128  140 1   
   133  130  131 1   
   134  130  132 1   
   135  130  135 1   
   136  131  137 1   
   137  131  138 1   
   138  131  139 1   
   139  132  136 1   
   140  140  141 1   
   141  140  149 1   
   142  141  142 1   
   143  141  144 1   
   144  141  150 1   
   145  142  143 2   
   146  142  162 1   
   147  144  145 1   
   148  144  151 1   
   149  144  152 1   
   150  145  146 1   
   151  145  153 1   
   152  145  154 1   
   153  146  147 1   
   154  146  155 1   
   155  146  156 1   
   156  147  148 1   
   157  147  157 1   
   158  147  158 1   
   159  148  159 1   
   160  148  160 1   
   161  148  161 1   
   162  162  163 1   
   163  162  171 1   
   164  163  164 1   
   165  163  166 1   
   166  163  172 1   
   167  164  165 2   
   168  164  177 1   
   169  166  167 1   
   170  166  173 1   
   171  166  174 1   
   172  167  168 1   
   173  167  175 1   
   174  167  176 1   
   175  168  169 1   
   176  168  170 1   
   177  177  178 1   
   178  177  182 1   
   179  178  179 1   
   180  178  180 1   
   181  178  181 1   
   182  184  185 1   
   183  184  186 1   
   184  187  188 1   
   185  187  189 1   
@<TRIPOS>SUBSTRUCTURE
     1 MOL         1 TEMP              0 ****  ****    0 ROOT
