@<TRIPOS>MOLECULE
MOL
  176   174     1     0     0
SMALL
resp


@<TRIPOS>ATOM
      1 C1          0.4390    3.8450    6.4270 c3        1 MOL     -0.288258
      2 C2          0.4270    3.0940    5.0490 c         1 MOL      0.697924
      3 O1          1.4520    3.0350    4.3460 o         1 MOL     -0.589011
      4 H1          0.2390    3.1340    7.2290 hc        1 MOL      0.076960
      5 H2          1.4150    4.3030    6.5840 hc        1 MOL      0.076960
      6 H3         -0.3290    4.6180    6.4280 hc        1 MOL      0.076960
      7 N1         -0.7240    2.7080    4.5410 n         1 MOL     -0.611551
      8 C3         -1.0390    2.4330    3.0890 c3        1 MOL     -0.027827
      9 C4         -0.8870    3.7070    2.2130 c         1 MOL      0.811988
     10 O2         -1.5600    4.6640    2.4770 o         1 MOL     -0.613348
     11 C5         -2.5510    1.9130    3.0360 c3        1 MOL     -0.151012
     12 C6         -2.7820    1.2910    1.6360 c         1 MOL      0.781914
     13 O3         -2.3830    1.8830    0.6120 o         1 MOL     -0.806860
     14 O4         -3.3160    0.1470    1.5370 o         1 MOL     -0.806860
     15 H4         -1.5550    2.8700    5.0870 hn        1 MOL      0.319537
     16 H5         -0.2830    1.7800    2.6470 h1        1 MOL      0.118562
     17 H6         -3.2650    2.7070    3.2800 hc        1 MOL      0.065107
     18 H7         -2.6460    1.2310    3.8730 hc        1 MOL      0.065107
     19 N2         -0.0990    3.6430    1.1870 n         1 MOL     -0.493127
     20 C7          0.1280    4.7050    0.2620 c3        1 MOL     -0.102812
     21 C8         -1.1240    5.1020   -0.5710 c         1 MOL      0.514081
     22 O5         -1.1850    6.2490   -0.9680 o         1 MOL     -0.577908
     23 C9          1.2680    4.2690   -0.6870 c3        1 MOL      0.253521
     24 C10         1.7520    5.4240   -1.6000 c3        1 MOL     -0.379584
     25 C11         3.0860    5.1170   -2.3340 c3        1 MOL      0.147898
     26 C12         3.3810    6.1250   -3.3560 c3        1 MOL      0.032889
     27 N3          4.6030    5.6740   -4.1220 n4        1 MOL     -0.465336
     28 H8          0.1010    2.6900    0.8880 hn        1 MOL      0.232000
     29 H9          0.4870    5.5670    0.8190 h1        1 MOL      0.122132
     30 H10         0.8230    3.4980   -1.3250 hc        1 MOL      0.005056
     31 H11         2.0310    3.8050   -0.0600 hc        1 MOL      0.005056
     32 H12         1.9420    6.2950   -0.9590 hc        1 MOL      0.098277
     33 H13         1.0060    5.5460   -2.3870 hc        1 MOL      0.098277
     34 H14         3.0630    4.1180   -2.7680 hc        1 MOL      0.032930
     35 H15         3.8950    5.1710   -1.6020 hc        1 MOL      0.032930
     36 H16         3.4520    7.1160   -2.8990 hx        1 MOL      0.080969
     37 H17         2.5130    6.1210   -4.0070 hx        1 MOL      0.080969
     38 H18         4.8380    6.4680   -4.7000 hn        1 MOL      0.352726
     39 H19         5.3290    5.5540   -3.4360 hn        1 MOL      0.352726
     40 H20         4.5120    4.8370   -4.6850 hn        1 MOL      0.352726
     41 N4         -2.0960    4.2360   -0.9420 n         1 MOL     -0.262992
     42 C13        -3.2690    4.4790   -1.8360 c3        1 MOL      0.087687
     43 C14        -4.6190    4.1850   -1.1680 c         1 MOL      0.390998
     44 O6         -5.6620    4.6480   -1.6530 o         1 MOL     -0.530797
     45 C15        -3.1500    3.6920   -3.1080 c3        1 MOL     -0.320999
     46 C16        -2.7750    2.2380   -2.8230 c         1 MOL      0.821093
     47 O7         -3.6280    1.4190   -2.3510 o         1 MOL     -0.762731
     48 O8         -1.6510    1.7870   -3.0360 o         1 MOL     -0.762731
     49 H21        -2.0450    3.2680   -0.6560 hn        1 MOL      0.268762
     50 H22        -3.3300    5.5230   -2.1480 h1        1 MOL      0.097860
     51 H23        -2.2670    3.9970   -3.6740 hc        1 MOL      0.087892
     52 H24        -4.0610    3.6060   -3.7000 hc        1 MOL      0.087892
     53 N5         -4.6210    3.4390   -0.0350 n         1 MOL     -0.177665
     54 C17        -5.7640    3.0500    0.8570 c3        1 MOL     -0.102419
     55 C18        -6.5850    1.8720    0.3140 c         1 MOL      0.435530
     56 O9         -7.7290    1.6130    0.8080 o         1 MOL     -0.564969
     57 H25        -3.7120    3.1070    0.2390 hn        1 MOL      0.073522
     58 H26        -6.4450    3.9030    0.8490 h1        1 MOL      0.105848
     59 H27        -5.4370    3.0180    1.8920 h1        1 MOL      0.105848
     60 N6         -6.0410    1.0630   -0.6400 n         1 MOL     -0.107072
     61 C19        -6.6800   -0.1500   -1.2080 c3        1 MOL     -0.140225
     62 C20        -6.8840   -1.2460   -0.1200 c         1 MOL      0.548995
     63 O10        -7.7040   -2.1360   -0.3500 o         1 MOL     -0.561383
     64 C21        -6.0140   -0.6820   -2.4680 c3        1 MOL     -0.108622
     65 C22        -4.8740   -1.7030   -2.2160 c         1 MOL      0.465195
     66 N7         -4.7250   -2.7290   -3.0290 n         1 MOL     -0.637678
     67 O11        -4.1400   -1.7340   -1.2470 o         1 MOL     -0.477150
     68 H28        -5.1330    1.2510   -1.0460 hn        1 MOL      0.128278
     69 H29        -7.6490    0.1900   -1.5880 h1        1 MOL      0.124320
     70 H30        -5.6270    0.1040   -3.1120 hc        1 MOL      0.084920
     71 H31        -6.8330   -1.1290   -3.0340 hc        1 MOL      0.084920
     72 H32        -5.2270   -2.7610   -3.9030 hn        1 MOL      0.310397
     73 H33        -3.9730   -3.3540   -2.7720 hn        1 MOL      0.310397
     74 N8         -6.3710   -1.1020    1.1010 n         1 MOL     -0.266493
     75 C23        -6.3360   -2.0760    2.1890 c3        1 MOL     -0.142777
     76 C24        -5.1520   -3.0340    2.3600 c         1 MOL      0.488795
     77 O12        -5.2790   -3.9830    3.1690 o         1 MOL     -0.552421
     78 H34        -5.8710   -0.2470    1.2830 hn        1 MOL      0.255759
     79 H35        -7.2840   -2.6020    2.1880 h1        1 MOL      0.109225
     80 H36        -6.3780   -1.5820    3.1580 h1        1 MOL      0.109225
     81 N9         -4.0100   -2.9050    1.5790 n         1 MOL     -0.243125
     82 C25        -2.7610   -3.7370    1.8460 c3        1 MOL      0.000791
     83 C26        -1.4900   -2.9620    1.4540 c         1 MOL      0.423439
     84 O13        -1.6030   -2.1210    0.5700 o         1 MOL     -0.443999
     85 C27        -2.8720   -5.1340    1.2200 c3        1 MOL     -0.124130
     86 C28        -2.8290   -5.1170   -0.3230 ca        1 MOL      0.099056
     87 C29        -1.6260   -4.8760   -1.0060 ca        1 MOL     -0.195942
     88 C30        -3.9600   -5.3970   -1.1190 ca        1 MOL     -0.195942
     89 C31        -1.5400   -4.8670   -2.4250 ca        1 MOL     -0.209936
     90 C32        -3.9090   -5.4750   -2.5480 ca        1 MOL     -0.209936
     91 C33        -2.7110   -5.1310   -3.2150 ca        1 MOL      0.231498
     92 O14        -2.5070   -4.9690   -4.5820 oh        1 MOL     -0.482925
     93 H37        -3.9950   -2.2430    0.8090 hn        1 MOL      0.220119
     94 H38        -2.7850   -3.9080    2.9290 h1        1 MOL      0.079030
     95 H39        -3.7880   -5.6790    1.4440 hc        1 MOL      0.069876
     96 H40        -2.0350   -5.7510    1.5490 hc        1 MOL      0.069876
     97 H41        -0.7160   -4.6960   -0.4550 ha        1 MOL      0.159348
     98 H42        -4.9220   -5.5310   -0.6450 ha        1 MOL      0.159348
     99 H43        -0.5650   -4.5990   -2.7810 ha        1 MOL      0.143947
    100 H44        -4.7260   -5.8510   -3.1450 ha        1 MOL      0.143947
    101 H45        -3.3720   -5.0530   -4.9760 ho        1 MOL      0.365485
    102 N10        -0.3030   -3.4310    1.9100 n         1 MOL     -0.381841
    103 C34         1.0480   -2.7700    1.5900 c3        1 MOL     -0.142134
    104 C35         2.1550   -3.7180    1.1620 c         1 MOL      0.440068
    105 O15         2.3320   -4.7880    1.7830 o         1 MOL     -0.527128
    106 C36         1.5860   -1.8750    2.7250 c3        1 MOL      0.374000
    107 C37         1.9370   -2.6160    4.0650 c3        1 MOL     -0.018467
    108 C38         0.6580   -0.6890    3.0500 c3        1 MOL     -0.227177
    109 C39         2.2830   -1.7970    5.3350 c3        1 MOL     -0.138590
    110 H46        -0.3660   -4.1420    2.6240 hn        1 MOL      0.305468
    111 H47         0.8750   -2.0540    0.7930 h1        1 MOL      0.104990
    112 H48         2.5550   -1.5120    2.3740 hc        1 MOL     -0.123231
    113 H49         2.8160   -3.2240    3.8550 hc        1 MOL     -0.002142
    114 H50         1.0690   -3.2330    4.2990 hc        1 MOL     -0.002142
    115 H51         0.3650   -0.2470    2.0900 hc        1 MOL      0.046508
    116 H52        -0.2390   -1.0920    3.5320 hc        1 MOL      0.046508
    117 H53         1.0120    0.1690    3.6210 hc        1 MOL      0.046508
    118 H54         2.9920   -1.0020    5.1090 hc        1 MOL      0.038171
    119 H55         1.4930   -1.3470    5.9270 hc        1 MOL      0.038171
    120 H56         2.8230   -2.4410    6.0200 hc        1 MOL      0.038171
    121 N11         2.9480   -3.3260    0.1370 n         1 MOL     -0.217835
    122 C40         4.1880   -3.9120   -0.3370 c3        1 MOL      0.065439
    123 C41         5.4070   -2.9890   -0.0150 c         1 MOL      0.508807
    124 O16         5.3360   -1.9550    0.5690 o         1 MOL     -0.414258
    125 C42         4.0930   -4.0470   -1.8130 c3        1 MOL     -0.077033
    126 O17         4.0480   -2.7890   -2.4740 oh        1 MOL     -0.547619
    127 H57         2.8300   -2.3850   -0.1970 hn        1 MOL      0.214898
    128 H58         4.3960   -4.8910    0.0890 h1        1 MOL      0.079967
    129 H59         3.2940   -4.6830   -2.1970 h1        1 MOL      0.073606
    130 H60         5.0620   -4.4550   -2.1000 h1        1 MOL      0.073606
    131 H61         4.2190   -2.8840   -3.4100 ho        1 MOL      0.420689
    132 N12         6.6260   -3.4520   -0.3240 n         1 MOL     -0.496179
    133 C43         7.8430   -2.8510    0.1520 c3        1 MOL      0.202321
    134 C44         8.1120   -1.3650   -0.3540 c         1 MOL      0.421716
    135 O18         8.4010   -0.5060    0.4840 o         1 MOL     -0.487694
    136 C45         8.9310   -3.8300   -0.3230 c3        1 MOL     -0.404526
    137 H62         6.6490   -4.3380   -0.8070 hn        1 MOL      0.296278
    138 H63         7.9160   -2.8680    1.2410 h1        1 MOL      0.084264
    139 H64         8.7970   -3.8570   -1.4100 hc        1 MOL      0.114806
    140 H65         9.9170   -3.5030    0.0040 hc        1 MOL      0.114806
    141 H66         8.8310   -4.8120    0.1470 hc        1 MOL      0.114806
    142 N13         7.8350   -1.0420   -1.6300 n         1 MOL     -0.425960
    143 C46         7.7290    0.3730   -2.0970 c3        1 MOL      0.063633
    144 C47         6.5950    1.1680   -1.3690 c         1 MOL      0.434767
    145 O19         6.6220    2.3810   -1.5390 o         1 MOL     -0.561536
    146 C48         7.4610    0.3330   -3.5510 c3        1 MOL     -0.232172
    147 H67         7.7090   -1.8140   -2.2630 hn        1 MOL      0.292988
    148 H68         8.6420    0.9430   -1.9930 h1        1 MOL      0.120754
    149 H69         7.2620    1.3380   -3.9250 hc        1 MOL      0.066768
    150 H70         8.3140    0.0170   -4.1550 hc        1 MOL      0.066768
    151 H71         6.6300   -0.3150   -3.8230 hc        1 MOL      0.066768
    152 N14         5.5610    0.5370   -0.7590 n         1 MOL     -0.206580
    153 C49         4.6010    1.3760    0.0160 c3        1 MOL      0.040707
    154 C50         5.1160    1.5290    1.4220 c         1 MOL      0.614624
    155 O20         4.9850    2.6610    1.8820 o         1 MOL     -0.545657
    156 C51         3.1670    0.8150    0.0490 c3        1 MOL     -0.127176
    157 C52         2.5970    0.7020   -1.3320 c3        1 MOL      0.063681
    158 C53         1.1110    0.3650   -1.0970 c         1 MOL      0.596207
    159 O21         0.6240   -0.7480   -1.4980 o         1 MOL     -0.696534
    160 O22         0.3380    1.0600   -0.3950 o         1 MOL     -0.696534
    161 H72         5.5100   -0.4680   -0.7020 hn        1 MOL      0.142534
    162 H73         4.4930    2.3840   -0.3640 h1        1 MOL     -0.012133
    163 H74         2.4770    1.3960    0.6560 hc        1 MOL      0.064803
    164 H75         3.2460   -0.1900    0.4740 hc        1 MOL      0.064803
    165 H76         3.0640   -0.0690   -1.9480 hc        1 MOL     -0.036986
    166 H77         2.6940    1.5510   -2.0120 hc        1 MOL     -0.036986
    167 N15         5.7600    0.4950    2.0180 n         1 MOL     -0.302231
    168 C54         6.2820    0.6290    3.4200 c3        1 MOL     -0.207389
    169 H78         5.8850    1.5400    3.8690 h1        1 MOL      0.102187
    170 H79         5.9680   -0.2320    4.0080 h1        1 MOL      0.102187
    171 H80         7.3700    0.6790    3.4000 h1        1 MOL      0.102187
    172 H81         6.1460   -0.2110    1.4170 hn        1 MOL      0.203440
    173 Ca1        -1.9410   -0.1570   -1.0730 Ca        1 MOL      1.713943
    174 O23        -1.5570   -1.6780   -3.1560 oh        1 MOL     -0.870923
    175 H82        -0.6890   -1.9490   -3.4500 ho        1 MOL      0.420860
    176 H83        -2.0610   -1.5700   -3.9710 ho        1 MOL      0.420860
@<TRIPOS>BOND
     1    1    2 1   
     2    1    4 1   
     3    1    5 1   
     4    1    6 1   
     5    2    3 2   
     6    2    7 1   
     7    7    8 1   
     8    7   15 1   
     9    8    9 1   
    10    8   11 1   
    11    8   16 1   
    12    9   10 2   
    13    9   19 1   
    14   11   12 1   
    15   11   17 1   
    16   11   18 1   
    17   12   13 1   
    18   12   14 1   
    19   19   20 1   
    20   19   28 1   
    21   20   21 1   
    22   20   23 1   
    23   20   29 1   
    24   21   22 2   
    25   21   41 1   
    26   23   24 1   
    27   23   30 1   
    28   23   31 1   
    29   24   25 1   
    30   24   32 1   
    31   24   33 1   
    32   25   26 1   
    33   25   34 1   
    34   25   35 1   
    35   26   27 1   
    36   26   36 1   
    37   26   37 1   
    38   27   38 1   
    39   27   39 1   
    40   27   40 1   
    41   41   42 1   
    42   41   49 1   
    43   42   43 1   
    44   42   45 1   
    45   42   50 1   
    46   43   44 2   
    47   43   53 1   
    48   45   46 1   
    49   45   51 1   
    50   45   52 1   
    51   46   47 1   
    52   46   48 1   
    53   53   54 1   
    54   53   57 1   
    55   54   55 1   
    56   54   58 1   
    57   54   59 1   
    58   55   56 2   
    59   55   60 1   
    60   60   61 1   
    61   60   68 1   
    62   61   62 1   
    63   61   64 1   
    64   61   69 1   
    65   62   63 2   
    66   62   74 1   
    67   64   65 1   
    68   64   70 1   
    69   64   71 1   
    70   65   66 1   
    71   65   67 2   
    72   66   72 1   
    73   66   73 1   
    74   74   75 1   
    75   74   78 1   
    76   75   76 1   
    77   75   79 1   
    78   75   80 1   
    79   76   77 2   
    80   76   81 1   
    81   81   82 1   
    82   81   93 1   
    83   82   83 1   
    84   82   85 1   
    85   82   94 1   
    86   83   84 2   
    87   83  102 1   
    88   85   86 1   
    89   85   95 1   
    90   85   96 1   
    91   86   87 ar  
    92   86   88 ar  
    93   87   89 ar  
    94   87   97 1   
    95   88   90 ar  
    96   88   98 1   
    97   89   91 ar  
    98   89   99 1   
    99   90   91 ar  
   100   90  100 1   
   101   91   92 1   
   102   92  101 1   
   103  102  103 1   
   104  102  110 1   
   105  103  104 1   
   106  103  106 1   
   107  103  111 1   
   108  104  105 2   
   109  104  121 1   
   110  106  107 1   
   111  106  108 1   
   112  106  112 1   
   113  107  109 1   
   114  107  113 1   
   115  107  114 1   
   116  108  115 1   
   117  108  116 1   
   118  108  117 1   
   119  109  118 1   
   120  109  119 1   
   121  109  120 1   
   122  121  122 1   
   123  121  127 1   
   124  122  123 1   
   125  122  125 1   
   126  122  128 1   
   127  123  124 2   
   128  123  132 1   
   129  125  126 1   
   130  125  129 1   
   131  125  130 1   
   132  126  131 1   
   133  132  133 1   
   134  132  137 1   
   135  133  134 1   
   136  133  136 1   
   137  133  138 1   
   138  134  135 2   
   139  134  142 1   
   140  136  139 1   
   141  136  140 1   
   142  136  141 1   
   143  142  143 1   
   144  142  147 1   
   145  143  144 1   
   146  143  146 1   
   147  143  148 1   
   148  144  145 2   
   149  144  152 1   
   150  146  149 1   
   151  146  150 1   
   152  146  151 1   
   153  152  153 1   
   154  152  161 1   
   155  153  154 1   
   156  153  156 1   
   157  153  162 1   
   158  154  155 2   
   159  154  167 1   
   160  156  157 1   
   161  156  163 1   
   162  156  164 1   
   163  157  158 1   
   164  157  165 1   
   165  157  166 1   
   166  158  159 1   
   167  158  160 1   
   168  167  168 1   
   169  167  172 1   
   170  168  169 1   
   171  168  170 1   
   172  168  171 1   
   173  174  175 1   
   174  174  176 1   
@<TRIPOS>SUBSTRUCTURE
     1 MOL         1 TEMP              0 ****  ****    0 ROOT
