@<TRIPOS>MOLECULE
MOL
  189   185     1     0     0
SMALL
resp


@<TRIPOS>ATOM
      1 C1          0.5990    3.7610   -5.0450 c3        1 MOL     -0.289386
      2 C2          0.5900    2.8890   -3.7810 c         1 MOL      0.787697
      3 O1         -0.2680    3.0690   -2.9240 o         1 MOL     -0.635210
      4 H1         -0.0640    4.6140   -4.9010 hc        1 MOL      0.065984
      5 H2          1.6120    4.1170   -5.2340 hc        1 MOL      0.065984
      6 H3          0.2550    3.1730   -5.8960 hc        1 MOL      0.065984
      7 N1          1.6440    2.0880   -3.5720 n         1 MOL     -0.797881
      8 C3          2.0930    1.8030   -2.2580 c3        1 MOL      0.294730
      9 C4          2.7890    3.0630   -1.6340 c         1 MOL      0.533690
     10 O2          3.6640    3.5970   -2.2800 o         1 MOL     -0.564557
     11 C5          3.0980    0.6280   -2.4210 c3        1 MOL     -0.253146
     12 C6          3.9100    0.3220   -1.1920 c         1 MOL      0.721268
     13 O3          3.3680    0.3820   -0.1060 o         1 MOL     -0.661977
     14 O4          5.1440    0.0540   -1.3860 o         1 MOL     -0.661977
     15 H4          2.1950    2.0260   -4.4180 hn        1 MOL      0.377683
     16 H5          1.2940    1.4920   -1.5820 h1        1 MOL     -0.021456
     17 H6          3.8370    0.7910   -3.2020 hc        1 MOL      0.058939
     18 H7          2.4390   -0.2240   -2.5360 hc        1 MOL      0.058939
     19 N2          2.4870    3.5040   -0.4370 n         1 MOL     -0.281174
     20 C7          2.9570    4.8170    0.0010 c3        1 MOL     -0.077585
     21 C8          3.8540    4.8070    1.2280 c         1 MOL      0.471235
     22 O5          4.4480    5.8080    1.6560 o         1 MOL     -0.567077
     23 C9          1.7120    5.7020    0.3030 c3        1 MOL     -0.224253
     24 C10         0.8900    6.1060   -0.9070 c3        1 MOL      0.699506
     25 C11        -0.2910    7.0390   -0.7150 c3        1 MOL     -0.284707
     26 C12        -0.8950    7.4500   -2.0720 c3        1 MOL      0.019160
     27 N3          0.0030    8.0730   -3.1090 n4        1 MOL     -0.430117
     28 H8          1.7650    3.0690    0.1150 hn        1 MOL      0.226604
     29 H9          3.5110    5.2890   -0.8050 h1        1 MOL      0.095434
     30 H10         2.0550    6.5970    0.8070 hc        1 MOL      0.039513
     31 H11         1.0610    5.1970    1.0230 hc        1 MOL      0.039513
     32 H12         0.5800    5.2390   -1.4780 hc        1 MOL     -0.164033
     33 H13         1.6130    6.6250   -1.5410 hc        1 MOL     -0.164033
     34 H14         0.1560    7.8490   -0.1380 hc        1 MOL      0.071526
     35 H15        -1.0520    6.4830   -0.1640 hc        1 MOL      0.071526
     36 H16        -1.6490    8.1770   -1.7700 hx        1 MOL      0.113332
     37 H17        -1.5590    6.6620   -2.4030 hx        1 MOL      0.113332
     38 H18         0.6820    8.7670   -2.8300 hn        1 MOL      0.341224
     39 H19         0.5940    7.4250   -3.6140 hn        1 MOL      0.341224
     40 H20        -0.5480    8.5610   -3.8020 hn        1 MOL      0.341224
     41 N4          3.9460    3.6350    1.8810 n         1 MOL     -0.174337
     42 C13         4.6590    3.3170    3.1470 c3        1 MOL     -0.132238
     43 C14         5.8090    2.3730    2.9830 c         1 MOL      0.604064
     44 O6          6.7160    2.3710    3.7900 o         1 MOL     -0.565131
     45 C15         3.6280    2.6710    4.2260 c3        1 MOL     -0.218717
     46 C16         2.5900    1.6230    3.8000 c         1 MOL      0.789552
     47 O7          2.7420    1.0420    2.6900 o         1 MOL     -0.738241
     48 O8          1.5800    1.4710    4.6140 o         1 MOL     -0.738241
     49 H21         3.4100    2.9090    1.4300 hn        1 MOL      0.231318
     50 H22         4.9370    4.2910    3.5670 h1        1 MOL      0.127266
     51 H23         2.9970    3.4550    4.6450 hc        1 MOL      0.061220
     52 H24         4.1780    2.2040    5.0410 hc        1 MOL      0.061220
     53 N5          5.8930    1.7600    1.8370 n         1 MOL     -0.345875
     54 C17         7.1480    1.2630    1.2590 c3        1 MOL     -0.087811
     55 C18         7.4320   -0.1380    1.3640 c         1 MOL      0.554213
     56 O9          8.5960   -0.5290    1.3870 o         1 MOL     -0.635506
     57 H25         5.0990    1.8150    1.2210 hn        1 MOL      0.174944
     58 H26         8.0260    1.8360    1.5690 h1        1 MOL      0.095007
     59 H27         7.1760    1.3660    0.1770 h1        1 MOL      0.095007
     60 N6          6.4460   -0.9680    1.3400 n         1 MOL     -0.191909
     61 C19         6.6230   -2.4770    1.5960 c3        1 MOL     -0.055376
     62 C20         6.6480   -3.3000    0.2800 c         1 MOL      0.438527
     63 O10         6.6820   -4.5060    0.2860 o         1 MOL     -0.524676
     64 C21         5.4960   -2.9710    2.5930 c3        1 MOL     -0.157675
     65 C22         4.0590   -2.5100    2.2270 c         1 MOL      0.705464
     66 O11         3.3850   -1.9450    3.1280 o         1 MOL     -0.696278
     67 O12         3.6000   -2.6960    1.0660 o         1 MOL     -0.696278
     68 H28         5.5740   -0.4670    1.2060 hn        1 MOL      0.137820
     69 H29         7.5800   -2.6980    2.0560 h1        1 MOL      0.136600
     70 H30         5.7870   -2.4730    3.5170 hc        1 MOL      0.054534
     71 H31         5.5730   -4.0530    2.7080 hc        1 MOL      0.054534
     72 N7          6.6030   -2.5990   -0.8430 n         1 MOL     -0.244174
     73 C23         6.4310   -3.2900   -2.1190 c3        1 MOL     -0.294433
     74 C24         5.0510   -3.8940   -2.3590 c         1 MOL      0.557868
     75 O13         4.8690   -4.5040   -3.3500 o         1 MOL     -0.564950
     76 H32         6.5000   -1.5990   -0.7540 hn        1 MOL      0.249610
     77 H33         7.2410   -4.0220   -2.1490 h1        1 MOL      0.142408
     78 H34         6.4490   -2.7080   -3.0380 h1        1 MOL      0.142408
     79 N8          4.0370   -3.5850   -1.5360 n         1 MOL     -0.166358
     80 C25         2.6190   -4.1090   -1.7460 c3        1 MOL     -0.205697
     81 C26         1.5140   -3.0600   -1.6500 c         1 MOL      0.752117
     82 O14         1.6480   -2.0200   -1.0040 o         1 MOL     -0.683434
     83 C27         2.4420   -5.3900   -0.8910 c3        1 MOL      0.477736
     84 C28         3.4160   -6.5540   -1.2580 c3        1 MOL     -0.310034
     85 O15         2.6240   -5.0050    0.4440 oh        1 MOL     -0.666326
     86 H35         4.1880   -3.1300   -0.6400 hn        1 MOL      0.140803
     87 H36         2.6420   -4.4270   -2.7880 h1        1 MOL      0.068701
     88 H37         1.3960   -5.6680   -1.0230 h1        1 MOL     -0.045385
     89 H38         3.0310   -4.1390    0.4660 ho        1 MOL      0.445898
     90 H39         3.3590   -6.5900   -2.3460 hc        1 MOL      0.076868
     91 H40         4.4410   -6.3310   -0.9510 hc        1 MOL      0.076868
     92 H41         3.0990   -7.5250   -0.8810 hc        1 MOL      0.076868
     93 N9          0.3430   -3.3370   -2.2190 n         1 MOL     -0.581112
     94 C29        -0.8440   -2.5110   -2.3160 c3        1 MOL      0.088101
     95 C30        -2.0360   -3.1220   -1.5430 c         1 MOL      0.505045
     96 O16        -2.4210   -4.3040   -1.8110 o         1 MOL     -0.547752
     97 C31        -1.1580   -2.1980   -3.8450 c3        1 MOL     -0.055423
     98 C32        -0.3160   -0.9560   -4.3770 c3        1 MOL      0.139843
     99 C33        -2.6410   -1.8530   -4.2160 c3        1 MOL     -0.133239
    100 C34        -0.5700   -0.6860   -5.8470 c3        1 MOL     -0.199993
    101 H42         0.1830   -4.2000   -2.7250 hn        1 MOL      0.293405
    102 H43        -0.7050   -1.5610   -1.8110 h1        1 MOL      0.169739
    103 H44        -0.8770   -3.0640   -4.4450 hc        1 MOL      0.055895
    104 H45         0.7060   -1.3170   -4.3310 hc        1 MOL     -0.009625
    105 H46        -0.4280   -0.0980   -3.7160 hc        1 MOL     -0.009625
    106 H47        -2.9200   -2.0350   -5.2630 hc        1 MOL      0.020752
    107 H48        -3.3270   -2.4670   -3.6300 hc        1 MOL      0.020752
    108 H49        -2.8480   -0.8040   -4.0480 hc        1 MOL      0.020752
    109 H50        -1.4860   -0.0930   -5.9780 hc        1 MOL      0.048139
    110 H51         0.2290   -0.1200   -6.3270 hc        1 MOL      0.048139
    111 H52        -0.4850   -1.6270   -6.3900 hc        1 MOL      0.048139
    112 N10        -2.5530   -2.3630   -0.5200 n         1 MOL     -0.170717
    113 C35        -3.6890   -2.8410    0.3190 c3        1 MOL     -0.015302
    114 C36        -4.9410   -2.5090   -0.4040 c         1 MOL      0.281920
    115 O17        -5.0500   -1.9420   -1.4870 o         1 MOL     -0.301149
    116 C37        -3.6210   -2.2380    1.7400 c3        1 MOL      0.077842
    117 C38        -2.3410   -2.6110    2.4830 c3        1 MOL     -0.643947
    118 O18        -3.7440   -0.8420    1.5440 oh        1 MOL     -0.376057
    119 H53        -2.1580   -1.4630   -0.2750 hn        1 MOL      0.037516
    120 H54        -3.6180   -3.9170    0.5160 h1        1 MOL      0.091995
    121 H55        -4.4960   -2.5640    2.3070 h1        1 MOL      0.019878
    122 H56        -3.7020   -0.5650    2.4630 ho        1 MOL      0.348469
    123 H57        -1.4050   -2.3350    2.0210 hc        1 MOL      0.195980
    124 H58        -2.3820   -2.3510    3.5400 hc        1 MOL      0.195980
    125 H59        -2.3910   -3.7020    2.5290 hc        1 MOL      0.195980
    126 N11        -6.0730   -2.8930    0.2110 n         1 MOL     -0.199392
    127 C39        -7.3810   -2.3510   -0.1640 c3        1 MOL     -0.275303
    128 C40        -7.4840   -0.7760   -0.0270 c         1 MOL      0.359850
    129 O19        -7.9790   -0.0970   -0.9530 o         1 MOL     -0.474579
    130 C41        -8.4400   -2.8430    0.9120 c3        1 MOL      0.346090
    131 C42        -8.6770   -4.3290    0.9060 c3        1 MOL     -0.394494
    132 O20        -7.9550   -2.6010    2.2110 oh        1 MOL     -0.691369
    133 H60        -5.9960   -3.4300    1.0610 hn        1 MOL      0.213834
    134 H61        -7.6700   -2.6780   -1.1650 h1        1 MOL      0.183074
    135 H62        -9.4070   -2.3670    0.8180 h1        1 MOL      0.079609
    136 H63        -7.8620   -3.4350    2.6790 ho        1 MOL      0.419464
    137 H64        -7.7870   -4.7950    1.3130 hc        1 MOL      0.111217
    138 H65        -9.5450   -4.6840    1.4740 hc        1 MOL      0.111217
    139 H66        -8.7470   -4.7030   -0.1170 hc        1 MOL      0.111217
    140 N12        -6.8380   -0.1630    0.9390 n         1 MOL     -0.056490
    141 C43        -6.7840    1.3150    1.1540 c3        1 MOL     -0.246957
    142 C44        -6.0990    2.0280   -0.0140 c         1 MOL      0.412436
    143 O21        -6.6870    2.8540   -0.6870 o         1 MOL     -0.474210
    144 C45        -6.1290    1.7810    2.4390 c3        1 MOL      0.250027
    145 C46        -6.7780    1.1580    3.6280 c3        1 MOL     -0.256514
    146 C47        -6.2010    1.8310    4.8710 c3        1 MOL      0.063292
    147 C48        -6.9840    1.3390    6.0630 c3        1 MOL     -0.039593
    148 N13        -6.7360   -0.0700    6.4740 n4        1 MOL     -0.480827
    149 H67        -6.5380   -0.7730    1.6910 hn        1 MOL      0.138010
    150 H68        -7.7920    1.7360    1.2200 h1        1 MOL      0.129391
    151 H69        -6.1790    2.8630    2.4380 hc        1 MOL     -0.028351
    152 H70        -5.0630    1.5520    2.4300 hc        1 MOL     -0.028351
    153 H71        -6.6050    0.0840    3.6760 hc        1 MOL      0.069324
    154 H72        -7.8250    1.4410    3.5260 hc        1 MOL      0.069324
    155 H73        -6.1830    2.9220    4.8390 hc        1 MOL      0.039747
    156 H74        -5.2110    1.4510    5.1100 hc        1 MOL      0.039747
    157 H75        -8.0410    1.5120    5.8550 hx        1 MOL      0.117963
    158 H76        -6.8440    1.9930    6.9230 hx        1 MOL      0.117963
    159 H77        -5.7940   -0.1520    6.8200 hn        1 MOL      0.354043
    160 H78        -7.3390   -0.3320    7.2320 hn        1 MOL      0.354043
    161 H79        -6.9320   -0.7800    5.7810 hn        1 MOL      0.354043
    162 N14        -4.8720    1.5410   -0.3650 n         1 MOL     -0.337086
    163 C49        -4.0160    2.0450   -1.4790 c3        1 MOL     -0.257770
    164 C50        -4.6120    1.7320   -2.8550 c         1 MOL      0.477571
    165 O22        -4.5050    2.5960   -3.7720 o         1 MOL     -0.556343
    166 C51        -2.6330    1.3820   -1.4250 c3        1 MOL      0.074918
    167 C52        -1.9600    1.8150   -0.1140 c3        1 MOL      0.062099
    168 C53        -0.7370    1.0560    0.3770 c         1 MOL      0.697929
    169 O23        -0.8370   -0.1740    0.3400 o         1 MOL     -0.733979
    170 O24         0.2910    1.5840    0.8860 o         1 MOL     -0.733979
    171 H80        -4.6080    0.7360    0.1850 hn        1 MOL      0.476008
    172 H81        -3.9210    3.1080   -1.2910 h1        1 MOL      0.159243
    173 H82        -2.0690    1.6470   -2.3220 hc        1 MOL      0.048643
    174 H83        -2.6740    0.3080   -1.6080 hc        1 MOL      0.048643
    175 H84        -2.6880    1.7230    0.6890 hc        1 MOL     -0.064119
    176 H85        -1.7270    2.8900   -0.0820 hc        1 MOL     -0.064119
    177 N15        -5.4270    0.6120   -2.9390 n         1 MOL      0.059364
    178 C54        -6.2290    0.3500   -4.1410 c3        1 MOL     -0.392363
    179 H86        -6.5630    1.2960   -4.5680 h1        1 MOL      0.131099
    180 H87        -5.6250   -0.1860   -4.8720 h1        1 MOL      0.131099
    181 H88        -7.0960   -0.2540   -3.8750 h1        1 MOL      0.131099
    182 H89        -5.2730   -0.0760   -2.2260 hn        1 MOL      0.023101
    183 Ca1         1.6110   -0.8350    1.3640 Ca        1 MOL      1.789144
    184 O25         0.2920   -0.9440    3.8920 oh        1 MOL     -0.893496
    185 H90        -0.2240   -1.2030    4.6580 ho        1 MOL      0.407732
    186 H91         0.8810   -0.2660    4.2100 ho        1 MOL      0.407732
    187 O26         0.7810   -3.5200    1.8680 oh        1 MOL     -0.893496
    188 H92         1.3240   -4.2380    1.5470 ho        1 MOL      0.407732
    189 H93         0.4720   -3.8100    2.7220 ho        1 MOL      0.407732
@<TRIPOS>BOND
     1    1    2 1   
     2    1    4 1   
     3    1    5 1   
     4    1    6 1   
     5    2    3 2   
     6    2    7 1   
     7    7    8 1   
     8    7   15 1   
     9    8    9 1   
    10    8   11 1   
    11    8   16 1   
    12    9   10 2   
    13    9   19 1   
    14   11   12 1   
    15   11   17 1   
    16   11   18 1   
    17   12   13 1   
    18   12   14 1   
    19   19   20 1   
    20   19   28 1   
    21   20   21 1   
    22   20   23 1   
    23   20   29 1   
    24   21   22 2   
    25   21   41 1   
    26   23   24 1   
    27   23   30 1   
    28   23   31 1   
    29   24   25 1   
    30   24   32 1   
    31   24   33 1   
    32   25   26 1   
    33   25   34 1   
    34   25   35 1   
    35   26   27 1   
    36   26   36 1   
    37   26   37 1   
    38   27   38 1   
    39   27   39 1   
    40   27   40 1   
    41   41   42 1   
    42   41   49 1   
    43   42   43 1   
    44   42   45 1   
    45   42   50 1   
    46   43   44 2   
    47   43   53 1   
    48   45   46 1   
    49   45   51 1   
    50   45   52 1   
    51   46   47 1   
    52   46   48 1   
    53   53   54 1   
    54   53   57 1   
    55   54   55 1   
    56   54   58 1   
    57   54   59 1   
    58   55   56 2   
    59   55   60 1   
    60   60   61 1   
    61   60   68 1   
    62   61   62 1   
    63   61   64 1   
    64   61   69 1   
    65   62   63 2   
    66   62   72 1   
    67   64   65 1   
    68   64   70 1   
    69   64   71 1   
    70   65   66 1   
    71   65   67 1   
    72   72   73 1   
    73   72   76 1   
    74   73   74 1   
    75   73   77 1   
    76   73   78 1   
    77   74   75 2   
    78   74   79 1   
    79   79   80 1   
    80   79   86 1   
    81   80   81 1   
    82   80   83 1   
    83   80   87 1   
    84   81   82 2   
    85   81   93 1   
    86   83   84 1   
    87   83   85 1   
    88   83   88 1   
    89   84   90 1   
    90   84   91 1   
    91   84   92 1   
    92   85   89 1   
    93   93   94 1   
    94   93  101 1   
    95   94   95 1   
    96   94   97 1   
    97   94  102 1   
    98   95   96 2   
    99   95  112 1   
   100   97   98 1   
   101   97   99 1   
   102   97  103 1   
   103   98  100 1   
   104   98  104 1   
   105   98  105 1   
   106   99  106 1   
   107   99  107 1   
   108   99  108 1   
   109  100  109 1   
   110  100  110 1   
   111  100  111 1   
   112  112  113 1   
   113  112  119 1   
   114  113  114 1   
   115  113  116 1   
   116  113  120 1   
   117  114  115 2   
   118  114  126 1   
   119  116  117 1   
   120  116  118 1   
   121  116  121 1   
   122  117  123 1   
   123  117  124 1   
   124  117  125 1   
   125  118  122 1   
   126  126  127 1   
   127  126  133 1   
   128  127  128 1   
   129  127  130 1   
   130  127  134 1   
   131  128  129 2   
   132  128  140 1   
   133  130  131 1   
   134  130  132 1   
   135  130  135 1   
   136  131  137 1   
   137  131  138 1   
   138  131  139 1   
   139  132  136 1   
   140  140  141 1   
   141  140  149 1   
   142  141  142 1   
   143  141  144 1   
   144  141  150 1   
   145  142  143 2   
   146  142  162 1   
   147  144  145 1   
   148  144  151 1   
   149  144  152 1   
   150  145  146 1   
   151  145  153 1   
   152  145  154 1   
   153  146  147 1   
   154  146  155 1   
   155  146  156 1   
   156  147  148 1   
   157  147  157 1   
   158  147  158 1   
   159  148  159 1   
   160  148  160 1   
   161  148  161 1   
   162  162  163 1   
   163  162  171 1   
   164  163  164 1   
   165  163  166 1   
   166  163  172 1   
   167  164  165 2   
   168  164  177 1   
   169  166  167 1   
   170  166  173 1   
   171  166  174 1   
   172  167  168 1   
   173  167  175 1   
   174  167  176 1   
   175  168  169 1   
   176  168  170 1   
   177  177  178 1   
   178  177  182 1   
   179  178  179 1   
   180  178  180 1   
   181  178  181 1   
   182  184  185 1   
   183  184  186 1   
   184  187  188 1   
   185  187  189 1   
@<TRIPOS>SUBSTRUCTURE
     1 MOL         1 TEMP              0 ****  ****    0 ROOT
