@<TRIPOS>MOLECULE
MOL
  175   173     1     0     0
SMALL
resp


@<TRIPOS>ATOM
      1 C1          0.3650    4.3220    5.1480 c3        1 MOL     -0.395173
      2 C2         -0.2450    3.9550    3.7650 c         1 MOL      0.709450
      3 O1          0.3830    3.7910    2.7240 o         1 MOL     -0.515077
      4 H1         -0.3700    4.1330    5.9300 hc        1 MOL      0.096444
      5 H2          1.2510    3.7130    5.3280 hc        1 MOL      0.096444
      6 H3          0.6410    5.3760    5.1550 hc        1 MOL      0.096444
      7 N1         -1.5490    3.8730    3.7220 n         1 MOL     -0.618432
      8 C3         -2.2940    3.5950    2.4570 c3        1 MOL      0.228235
      9 C4         -2.4510    4.8730    1.5400 c         1 MOL      0.495671
     10 O2         -2.3080    6.0050    1.9290 o         1 MOL     -0.546025
     11 C5         -3.6350    2.8250    2.8100 c3        1 MOL     -0.371359
     12 C6         -4.3750    2.4010    1.5460 c         1 MOL      0.688022
     13 O3         -5.5740    2.2900    1.5620 o         1 MOL     -0.629851
     14 O4         -3.6960    2.0690    0.5670 o         1 MOL     -0.629851
     15 H4         -2.0700    3.9860    4.5770 hn        1 MOL      0.311983
     16 H5         -1.6750    2.8770    1.9090 h1        1 MOL      0.002340
     17 H6         -4.3180    3.4630    3.3620 hc        1 MOL      0.086296
     18 H7         -3.5030    1.9810    3.4770 hc        1 MOL      0.086296
     19 N2         -2.6710    4.6350    0.2470 n         1 MOL     -0.340462
     20 C7         -3.1900    5.5640   -0.7350 c3        1 MOL      0.322509
     21 C8         -4.2510    5.0110   -1.7570 c         1 MOL      0.367482
     22 O5         -4.7270    5.7590   -2.6480 o         1 MOL     -0.550824
     23 C9         -2.0510    6.3120   -1.4280 c3        1 MOL     -0.276652
     24 H8         -2.6620    3.6850   -0.1020 hn        1 MOL      0.282918
     25 H9         -3.6910    6.3360   -0.1440 h1        1 MOL     -0.029288
     26 H10        -1.5070    6.9510   -0.7320 hc        1 MOL      0.065872
     27 H11        -1.3050    5.5490   -1.6480 hc        1 MOL      0.065872
     28 H12        -2.4340    6.8330   -2.3080 hc        1 MOL      0.065872
     29 N3         -4.6240    3.7230   -1.7020 n         1 MOL     -0.320570
     30 C10        -5.3300    3.0930   -2.8510 c3        1 MOL      0.185295
     31 C11        -6.4410    2.1400   -2.4710 c         1 MOL      0.312315
     32 O6         -7.2490    1.8020   -3.3190 o         1 MOL     -0.541556
     33 C12        -4.2360    2.3440   -3.6170 c3        1 MOL     -0.101244
     34 C13        -3.3990    1.2660   -2.8250 c         1 MOL      0.653258
     35 O7         -3.9200    0.7050   -1.8230 o         1 MOL     -0.682696
     36 O8         -2.2600    0.9620   -3.1180 o         1 MOL     -0.682696
     37 H13        -4.3170    3.1130   -0.9590 hn        1 MOL      0.103399
     38 H14        -5.7970    3.7590   -3.5800 h1        1 MOL      0.062986
     39 H15        -3.6330    3.0300   -4.2120 hc        1 MOL      0.020247
     40 H16        -4.8180    1.7480   -4.3230 hc        1 MOL      0.020247
     41 N4         -6.5320    1.6920   -1.2200 n         1 MOL     -0.103261
     42 C14        -7.5690    0.7570   -0.7170 c3        1 MOL     -0.148568
     43 C15        -7.4200   -0.7240   -1.0620 c         1 MOL      0.479121
     44 O9         -8.4290   -1.4750   -0.8960 o         1 MOL     -0.613652
     45 H17        -5.8160    1.9950   -0.5750 hn        1 MOL      0.105489
     46 H18        -8.5270    1.2280   -0.9200 h1        1 MOL      0.088409
     47 H19        -7.3420    0.7590    0.3520 h1        1 MOL      0.088409
     48 N5         -6.2200   -1.2180   -1.4540 n         1 MOL     -0.231724
     49 C16        -6.0480   -2.5900   -1.9570 c3        1 MOL      0.026222
     50 C17        -5.9160   -3.6820   -0.8740 c         1 MOL      0.376346
     51 O10        -5.6140   -4.8210   -1.1550 o         1 MOL     -0.451834
     52 C18        -4.9980   -2.6440   -2.9850 c3        1 MOL     -0.304830
     53 C19        -3.6000   -2.4850   -2.4260 c         1 MOL      0.637560
     54 N6         -2.6590   -2.4160   -3.2950 n         1 MOL     -0.569968
     55 O11        -3.4130   -2.2280   -1.2170 o         1 MOL     -0.525443
     56 H20        -5.4850   -0.5310   -1.3730 hn        1 MOL      0.249194
     57 H21        -6.9460   -2.8660   -2.4990 h1        1 MOL      0.111061
     58 H22        -5.1650   -1.8400   -3.7030 hc        1 MOL      0.086649
     59 H23        -4.9560   -3.6330   -3.4390 hc        1 MOL      0.086649
     60 H24        -2.8900   -2.5400   -4.2670 hn        1 MOL      0.309109
     61 H25        -1.6920   -2.2670   -3.0350 hn        1 MOL      0.309109
     62 N7         -5.9850   -3.2760    0.4290 n         1 MOL     -0.207256
     63 C20        -6.0250   -4.3080    1.4870 c3        1 MOL     -0.226167
     64 C21        -4.6520   -4.7840    1.9430 c         1 MOL      0.584842
     65 O12        -4.5730   -5.6630    2.8850 o         1 MOL     -0.627730
     66 H26        -6.0580   -2.3170    0.7280 hn        1 MOL      0.237026
     67 H27        -6.5440   -5.2250    1.1930 h1        1 MOL      0.105232
     68 H28        -6.5050   -3.8900    2.3790 h1        1 MOL      0.105232
     69 N8         -3.5840   -4.1780    1.4370 n         1 MOL     -0.280021
     70 C22        -2.1730   -4.6760    1.5780 c3        1 MOL     -0.002798
     71 C23        -1.3360   -3.4240    1.7570 c         1 MOL      0.471737
     72 O13        -1.6540   -2.4490    1.1340 o         1 MOL     -0.497572
     73 C24        -1.6010   -5.3340    0.3720 c3        1 MOL      0.576552
     74 C25        -1.7240   -6.8770    0.3710 c3        1 MOL     -0.458117
     75 O14        -2.2020   -4.9030   -0.8380 oh        1 MOL     -0.589951
     76 H29        -3.8510   -3.4650    0.7780 hn        1 MOL      0.124928
     77 H30        -2.0810   -5.2870    2.4840 h1        1 MOL      0.039047
     78 H31        -0.5270   -5.1300    0.3660 h1        1 MOL     -0.026260
     79 H32        -2.2010   -3.9470   -0.8850 ho        1 MOL      0.279157
     80 H33        -1.6340   -7.1790   -0.6740 hc        1 MOL      0.103370
     81 H34        -0.8590   -7.2340    0.9410 hc        1 MOL      0.103370
     82 H35        -2.7140   -7.1510    0.7350 hc        1 MOL      0.103370
     83 N9         -0.2300   -3.4760    2.4810 n         1 MOL     -0.560849
     84 C26         0.8400   -2.4730    2.2980 c3        1 MOL     -0.023635
     85 C27         1.7300   -2.8400    1.0460 c         1 MOL      0.448619
     86 O15         2.2400   -3.9490    0.9460 o         1 MOL     -0.575540
     87 C28         1.6450   -2.3040    3.6110 c3        1 MOL      0.184811
     88 C29         0.8680   -1.8210    4.8210 c3        1 MOL      0.105446
     89 C30         2.8060   -1.2600    3.3950 c3        1 MOL     -0.335390
     90 C31         1.7540   -1.9420    6.1260 c3        1 MOL     -0.193382
     91 H36        -0.0720   -4.2430    3.1180 hn        1 MOL      0.322870
     92 H37         0.3060   -1.5300    2.1390 h1        1 MOL      0.087753
     93 H38         2.0670   -3.2700    3.9080 hc        1 MOL     -0.016483
     94 H39         0.0280   -2.4750    5.0590 hc        1 MOL     -0.018242
     95 H40         0.5370   -0.8040    4.6670 hc        1 MOL     -0.018242
     96 H41         2.3440   -0.2760    3.3790 hc        1 MOL      0.069868
     97 H42         3.6170   -1.2310    4.1320 hc        1 MOL      0.069868
     98 H43         3.2980   -1.3890    2.4320 hc        1 MOL      0.069868
     99 H44         2.5660   -1.2170    6.1760 hc        1 MOL      0.039974
    100 H45         1.1200   -1.7580    6.9920 hc        1 MOL      0.039974
    101 H46         2.0350   -2.9880    6.2360 hc        1 MOL      0.039974
    102 N10         1.8660   -1.9290    0.0800 n         1 MOL     -0.093740
    103 C32         2.7640   -1.9260   -1.1380 c3        1 MOL     -0.017096
    104 C33         4.2210   -1.4420   -0.8490 c         1 MOL      0.391018
    105 O16         4.3860   -0.6580    0.0880 o         1 MOL     -0.238266
    106 C34         2.0340   -1.0440   -2.1560 c3        1 MOL     -0.177720
    107 C35         0.5260   -1.3710   -2.4560 c         1 MOL      0.719889
    108 O17        -0.3180   -1.2120   -1.5640 o         1 MOL     -0.682046
    109 O18         0.3030   -1.9000   -3.5830 o         1 MOL     -0.682046
    110 H47         1.4430   -1.0520    0.3420 hn        1 MOL      0.096423
    111 H48         2.7380   -2.8890   -1.6470 h1        1 MOL      0.080308
    112 H49         2.6090   -0.8410   -3.0580 hc        1 MOL      0.041172
    113 H50         2.0120   -0.0650   -1.6660 hc        1 MOL      0.041172
    114 N11         5.2500   -1.7970   -1.6150 n         1 MOL     -0.701142
    115 C36         6.6160   -1.4430   -1.2390 c3        1 MOL      0.633350
    116 C37         6.8600    0.0960   -1.1200 c         1 MOL      0.127550
    117 O19         7.5530    0.3810   -0.1550 o         1 MOL     -0.462406
    118 C38         7.5100   -2.1290   -2.2290 c3        1 MOL     -0.309752
    119 C39         9.0100   -1.9630   -2.0920 ca        1 MOL      0.081117
    120 C40         9.6200   -2.2580   -0.8360 ca        1 MOL     -0.130463
    121 C41         9.8760   -1.5440   -3.2330 ca        1 MOL     -0.130463
    122 C42        10.9430   -2.0840   -0.6470 ca        1 MOL     -0.156176
    123 C43        11.2310   -1.3860   -2.9680 ca        1 MOL     -0.156176
    124 C44        11.7020   -1.6020   -1.6510 ca        1 MOL     -0.050431
    125 H51         5.0070   -2.1440   -2.5250 hn        1 MOL      0.334004
    126 H52         6.7480   -1.8720   -0.2540 h1        1 MOL      0.012868
    127 H53         7.2190   -1.9610   -3.2710 hc        1 MOL      0.076200
    128 H54         7.2660   -3.1850   -2.1130 hc        1 MOL      0.076200
    129 H55         8.9670   -2.5100   -0.0150 ha        1 MOL      0.108252
    130 H56         9.4120   -1.3770   -4.1940 ha        1 MOL      0.108252
    131 H57        11.3820   -2.1740    0.3450 ha        1 MOL      0.121168
    132 H58        11.8410   -1.0120   -3.7830 ha        1 MOL      0.121168
    133 H59        12.7180   -1.2840   -1.4570 ha        1 MOL      0.077026
    134 N12         6.2830    1.0500   -1.8470 n         1 MOL      0.066961
    135 C45         6.5090    2.4280   -1.4710 c3        1 MOL     -0.028107
    136 C46         5.8650    2.9820   -0.2360 c         1 MOL      0.293125
    137 O20         6.3260    3.8470    0.4780 o         1 MOL     -0.487414
    138 C47         6.0430    3.2760   -2.6620 c3        1 MOL      0.017378
    139 C48         6.0760    2.2660   -3.8300 c3        1 MOL     -0.102771
    140 C49         5.7070    0.9220   -3.1620 c3        1 MOL      0.000557
    141 H60         7.5930    2.5360   -1.4800 h1        1 MOL      0.077369
    142 H61         4.9910    3.5650   -2.5390 hc        1 MOL      0.030924
    143 H62         6.5990    4.1640   -2.9210 hc        1 MOL      0.030924
    144 H63         5.3030    2.3690   -4.6020 hc        1 MOL      0.033043
    145 H64         7.0580    2.2210   -4.2850 hc        1 MOL      0.033043
    146 H65         4.6260    0.7710   -3.1370 h1        1 MOL      0.036464
    147 H66         6.2060    0.1360   -3.7370 h1        1 MOL      0.036464
    148 N13         4.8130    2.2710    0.2310 n         1 MOL     -0.107181
    149 C50         4.1280    2.4750    1.5090 c3        1 MOL      0.021996
    150 C51         4.9140    1.8740    2.7350 c         1 MOL      0.383774
    151 O21         5.1850    2.4910    3.7680 o         1 MOL     -0.555808
    152 C52         2.7060    1.9820    1.4800 c3        1 MOL     -0.083599
    153 C53         1.7630    2.5480    0.4280 c3        1 MOL     -0.125525
    154 C54         0.4680    1.7800    0.2270 c         1 MOL      0.730035
    155 O22         0.2260    0.6290    0.6960 o         1 MOL     -0.738042
    156 O23        -0.4190    2.3940   -0.3880 o         1 MOL     -0.738042
    157 H67         4.6280    1.3860   -0.2030 hn        1 MOL      0.051814
    158 H68         4.0390    3.5340    1.7590 h1        1 MOL      0.076308
    159 H69         2.3490    2.1890    2.4910 hc        1 MOL      0.035746
    160 H70         2.7440    0.8960    1.4000 hc        1 MOL      0.035746
    161 H71         2.2900    2.3600   -0.5080 hc        1 MOL      0.050343
    162 H72         1.6260    3.6290    0.5220 hc        1 MOL      0.050343
    163 N14         5.4920    0.7200    2.4360 n         1 MOL      0.101734
    164 C55         6.4320    0.0890    3.3370 c3        1 MOL     -0.179477
    165 H73         7.4090    0.0280    2.8570 h1        1 MOL      0.059957
    166 H74         6.5130    0.6780    4.2490 h1        1 MOL      0.059957
    167 H75         6.0840   -0.9140    3.5810 h1        1 MOL      0.059957
    168 H76         5.2400    0.2240    1.5930 hn        1 MOL     -0.016558
    169 Ca1        -2.1510    0.0650   -0.1370 Ca        1 MOL      1.723909
    170 O24        -4.9970   -0.4690    1.0700 oh        1 MOL     -0.782404
    171 H77        -5.7460   -0.8700    1.5220 ho        1 MOL      0.379201
    172 H78        -5.1090    0.4670    1.2160 ho        1 MOL      0.379201
    173 O25        -1.8370    0.0740    2.5630 oh        1 MOL     -0.782404
    174 H79        -1.9980    0.2670    3.4840 ho        1 MOL      0.379201
    175 H80        -0.8950    0.1990    2.4530 ho        1 MOL      0.379201
@<TRIPOS>BOND
     1    1    2 1   
     2    1    4 1   
     3    1    5 1   
     4    1    6 1   
     5    2    3 2   
     6    2    7 1   
     7    7    8 1   
     8    7   15 1   
     9    8    9 1   
    10    8   11 1   
    11    8   16 1   
    12    9   10 2   
    13    9   19 1   
    14   11   12 1   
    15   11   17 1   
    16   11   18 1   
    17   12   13 1   
    18   12   14 1   
    19   19   20 1   
    20   19   24 1   
    21   20   21 1   
    22   20   23 1   
    23   20   25 1   
    24   21   22 2   
    25   21   29 1   
    26   23   26 1   
    27   23   27 1   
    28   23   28 1   
    29   29   30 1   
    30   29   37 1   
    31   30   31 1   
    32   30   33 1   
    33   30   38 1   
    34   31   32 2   
    35   31   41 1   
    36   33   34 1   
    37   33   39 1   
    38   33   40 1   
    39   34   35 1   
    40   34   36 1   
    41   41   42 1   
    42   41   45 1   
    43   42   43 1   
    44   42   46 1   
    45   42   47 1   
    46   43   44 2   
    47   43   48 1   
    48   48   49 1   
    49   48   56 1   
    50   49   50 1   
    51   49   52 1   
    52   49   57 1   
    53   50   51 2   
    54   50   62 1   
    55   52   53 1   
    56   52   58 1   
    57   52   59 1   
    58   53   54 1   
    59   53   55 2   
    60   54   60 1   
    61   54   61 1   
    62   62   63 1   
    63   62   66 1   
    64   63   64 1   
    65   63   67 1   
    66   63   68 1   
    67   64   65 2   
    68   64   69 1   
    69   69   70 1   
    70   69   76 1   
    71   70   71 1   
    72   70   73 1   
    73   70   77 1   
    74   71   72 2   
    75   71   83 1   
    76   73   74 1   
    77   73   75 1   
    78   73   78 1   
    79   74   80 1   
    80   74   81 1   
    81   74   82 1   
    82   75   79 1   
    83   83   84 1   
    84   83   91 1   
    85   84   85 1   
    86   84   87 1   
    87   84   92 1   
    88   85   86 2   
    89   85  102 1   
    90   87   88 1   
    91   87   89 1   
    92   87   93 1   
    93   88   90 1   
    94   88   94 1   
    95   88   95 1   
    96   89   96 1   
    97   89   97 1   
    98   89   98 1   
    99   90   99 1   
   100   90  100 1   
   101   90  101 1   
   102  102  103 1   
   103  102  110 1   
   104  103  104 1   
   105  103  106 1   
   106  103  111 1   
   107  104  105 2   
   108  104  114 1   
   109  106  107 1   
   110  106  112 1   
   111  106  113 1   
   112  107  108 1   
   113  107  109 1   
   114  114  115 1   
   115  114  125 1   
   116  115  116 1   
   117  115  118 1   
   118  115  126 1   
   119  116  117 2   
   120  116  134 1   
   121  118  119 1   
   122  118  127 1   
   123  118  128 1   
   124  119  120 ar  
   125  119  121 ar  
   126  120  122 ar  
   127  120  129 1   
   128  121  123 ar  
   129  121  130 1   
   130  122  124 ar  
   131  122  131 1   
   132  123  124 ar  
   133  123  132 1   
   134  124  133 1   
   135  134  135 1   
   136  134  140 1   
   137  135  136 1   
   138  135  138 1   
   139  135  141 1   
   140  136  137 2   
   141  136  148 1   
   142  138  139 1   
   143  138  142 1   
   144  138  143 1   
   145  139  140 1   
   146  139  144 1   
   147  139  145 1   
   148  140  146 1   
   149  140  147 1   
   150  148  149 1   
   151  148  157 1   
   152  149  150 1   
   153  149  152 1   
   154  149  158 1   
   155  150  151 2   
   156  150  163 1   
   157  152  153 1   
   158  152  159 1   
   159  152  160 1   
   160  153  154 1   
   161  153  161 1   
   162  153  162 1   
   163  154  155 1   
   164  154  156 1   
   165  163  164 1   
   166  163  168 1   
   167  164  165 1   
   168  164  166 1   
   169  164  167 1   
   170  170  171 1   
   171  170  172 1   
   172  173  174 1   
   173  173  175 1   
@<TRIPOS>SUBSTRUCTURE
     1 MOL         1 TEMP              0 ****  ****    0 ROOT
