@<TRIPOS>MOLECULE
MOL
  186   183     1     0     0
SMALL
resp


@<TRIPOS>ATOM
      1 C1          0.7890   -1.4440    6.5840 c3        1 MOL     -0.330720
      2 C2          1.0940   -1.6480    5.0980 c         1 MOL      0.809470
      3 O1          0.2420   -2.1410    4.3850 o         1 MOL     -0.607713
      4 H1          1.7230   -1.3990    7.1440 hc        1 MOL      0.070469
      5 H2          0.2400   -0.5120    6.7180 hc        1 MOL      0.070469
      6 H3          0.1860   -2.2750    6.9490 hc        1 MOL      0.070469
      7 N1          2.2640   -1.1770    4.6310 n         1 MOL     -0.754964
      8 C3          2.8120   -1.4040    3.2830 c3        1 MOL      0.405592
      9 C4          3.0300   -2.8760    2.9880 c         1 MOL      0.437019
     10 O2          3.6290   -3.5570    3.8040 o         1 MOL     -0.613354
     11 C5          4.0860   -0.6250    3.0310 c3        1 MOL     -0.195099
     12 C6          4.5200   -0.5950    1.5320 c         1 MOL      0.815258
     13 O3          5.6790   -0.2310    1.2160 o         1 MOL     -0.736366
     14 O4          3.7180   -0.9340    0.6590 o         1 MOL     -0.736366
     15 H4          2.8270   -0.6800    5.3120 hn        1 MOL      0.331069
     16 H5          2.0850   -1.0960    2.5270 h1        1 MOL     -0.003275
     17 H6          4.8990   -1.1140    3.5770 hc        1 MOL      0.014747
     18 H7          4.0190    0.3890    3.4250 hc        1 MOL      0.014747
     19 N2          2.6520   -3.3760    1.8170 n         1 MOL      0.057201
     20 C7          2.8110   -4.8390    1.4480 c3        1 MOL     -0.106663
     21 C8          3.8230   -5.1440    0.4180 c         1 MOL      0.462365
     22 O5          4.0140   -6.2790   -0.0290 o         1 MOL     -0.556666
     23 C9          1.3890   -5.4370    1.1210 c3        1 MOL      0.182038
     24 C10         0.9040   -4.9470   -0.2940 c3        1 MOL      0.198910
     25 C11         0.2560   -5.2770    2.2170 c3        1 MOL     -0.345427
     26 C12        -0.1040   -5.9030   -1.0090 c3        1 MOL     -0.376317
     27 H8          2.2920   -2.7120    1.1460 hn        1 MOL     -0.076185
     28 H9          3.1720   -5.3210    2.3530 h1        1 MOL      0.078488
     29 H10         1.6280   -6.4960    1.0140 hc        1 MOL     -0.044777
     30 H11         1.7830   -4.8800   -0.9360 hc        1 MOL      0.039276
     31 H12         0.5550   -3.9220   -0.2340 hc        1 MOL      0.039276
     32 H13        -0.6630   -5.8230    1.9820 hc        1 MOL      0.080299
     33 H14         0.6270   -5.7300    3.1430 hc        1 MOL      0.080299
     34 H15         0.0630   -4.2270    2.4330 hc        1 MOL      0.080299
     35 H16         0.2000   -6.9400   -0.8590 hc        1 MOL      0.079284
     36 H17        -1.0600   -5.7950   -0.4880 hc        1 MOL      0.079284
     37 H18        -0.1700   -5.5450   -2.0390 hc        1 MOL      0.079284
     38 N3          4.3600   -4.1220   -0.2960 n         1 MOL     -0.464837
     39 C13         5.1740   -4.3340   -1.5020 c3        1 MOL      0.152202
     40 C14         6.3070   -3.2740   -1.5950 c         1 MOL      0.451949
     41 O6          6.7090   -2.8740   -2.7170 o         1 MOL     -0.518434
     42 C15         4.3190   -4.5400   -2.7920 c3        1 MOL     -0.336517
     43 C16         3.3310   -3.3440   -2.9980 c         1 MOL      0.809493
     44 O7          2.9380   -3.2320   -4.1580 o         1 MOL     -0.715533
     45 O8          2.9250   -2.5220   -2.1160 o         1 MOL     -0.715533
     46 H19         4.1470   -3.1990    0.0690 hn        1 MOL      0.186819
     47 H20         5.7930   -5.2260   -1.3630 h1        1 MOL      0.045515
     48 H21         3.7270   -5.4370   -2.6530 hc        1 MOL      0.096008
     49 H22         4.9620   -4.5810   -3.6660 hc        1 MOL      0.096008
     50 N4          6.8100   -2.8820   -0.4190 n         1 MOL     -0.345800
     51 C17         8.1170   -2.1840   -0.2350 c3        1 MOL     -0.327788
     52 C18         8.3050   -0.7810   -0.6350 c         1 MOL      0.628808
     53 O9          9.2990   -0.1840   -0.1770 o         1 MOL     -0.643532
     54 H23         6.2930   -3.2300    0.3790 hn        1 MOL      0.297845
     55 H24         8.9250   -2.7300   -0.7210 h1        1 MOL      0.145155
     56 H25         8.3190   -2.2210    0.8360 h1        1 MOL      0.145155
     57 N5          7.4160   -0.1650   -1.3460 n         1 MOL     -0.366931
     58 C19         7.5090    1.2760   -1.8440 c3        1 MOL      0.053006
     59 C20         7.3180    2.3730   -0.7550 c         1 MOL      0.441601
     60 O10         7.6620    3.5420   -1.0860 o         1 MOL     -0.604355
     61 C21         6.4440    1.5790   -2.9200 c3        1 MOL     -0.296315
     62 C22         4.9790    1.2480   -2.5450 c         1 MOL      0.751831
     63 O11         4.2980    0.4330   -3.2890 o         1 MOL     -0.740229
     64 O12         4.5400    1.5490   -1.3730 o         1 MOL     -0.740229
     65 H26         6.5840   -0.6880   -1.5620 hn        1 MOL      0.321776
     66 H27         8.4560    1.4450   -2.3650 h1        1 MOL      0.091146
     67 H28         6.6020    0.9210   -3.7700 hc        1 MOL      0.075225
     68 H29         6.4450    2.6320   -3.2230 hc        1 MOL      0.075225
     69 N6          6.9500    2.1180    0.4680 n         1 MOL     -0.150332
     70 C23         6.9100    3.1560    1.5350 c3        1 MOL     -0.169593
     71 C24         5.5820    3.9120    1.5840 c         1 MOL      0.594607
     72 O13         5.4470    4.7870    2.3610 o         1 MOL     -0.597861
     73 H30         6.4660    1.2780    0.7560 hn        1 MOL      0.233577
     74 H31         7.7010    3.8650    1.2950 h1        1 MOL      0.093755
     75 H32         7.1970    2.7500    2.5090 h1        1 MOL      0.093755
     76 N7          4.5200    3.5730    0.7760 n         1 MOL     -0.355598
     77 C25         3.2400    4.2000    0.7460 c3        1 MOL      0.169104
     78 C26         2.0950    3.1790    0.7880 c         1 MOL      0.459649
     79 O14         2.1740    2.0120    0.4020 o         1 MOL     -0.491204
     80 C27         2.9920    5.2160   -0.4110 c3        1 MOL      0.071071
     81 C28         3.7960    6.5240   -0.1800 c3        1 MOL     -0.272967
     82 C29         3.3480    7.5260   -1.2890 c         1 MOL      0.665564
     83 N8          4.2460    7.8270   -2.1980 n         1 MOL     -0.812847
     84 O15         2.2610    8.0530   -1.3310 o         1 MOL     -0.572719
     85 H33         4.6150    2.7460    0.2000 hn        1 MOL      0.210287
     86 H34         3.0470    4.8100    1.6350 h1        1 MOL      0.022315
     87 H35         1.9520    5.5330   -0.4510 hc        1 MOL     -0.008927
     88 H36         3.1520    4.6250   -1.3150 hc        1 MOL     -0.008927
     89 H37         4.8450    6.2810   -0.3050 hc        1 MOL      0.092444
     90 H38         3.5450    6.9150    0.8080 hc        1 MOL      0.092444
     91 H39         5.1120    7.3050   -2.2960 hn        1 MOL      0.365246
     92 H40         3.9330    8.4770   -2.9050 hn        1 MOL      0.365246
     93 N9          0.9250    3.6500    1.3840 n         1 MOL     -0.514143
     94 C30        -0.2210    2.7720    1.5530 c3        1 MOL      0.067216
     95 C31        -1.4290    3.1200    0.7070 c         1 MOL      0.412905
     96 O16        -2.0000    4.1740    0.9190 o         1 MOL     -0.552664
     97 C32        -0.4360    2.6720    3.0550 c3        1 MOL      0.154318
     98 C33        -1.6420    1.7500    3.3170 c3        1 MOL     -0.371744
     99 C34         0.8070    2.0460    3.8310 c3        1 MOL     -0.371744
    100 H41         0.8840    4.5520    1.8400 hn        1 MOL      0.310960
    101 H42        -0.0780    1.7480    1.2270 h1        1 MOL      0.119298
    102 H43        -0.6570    3.6790    3.3890 hc        1 MOL     -0.004706
    103 H44        -2.4940    1.8280    2.6400 hc        1 MOL      0.090366
    104 H45        -1.4020    0.7180    3.5700 hc        1 MOL      0.090366
    105 H46        -2.0210    2.0570    4.2920 hc        1 MOL      0.090366
    106 H47         1.0710    1.0650    3.4540 hc        1 MOL      0.090366
    107 H48         1.7470    2.5380    3.5750 hc        1 MOL      0.090366
    108 H49         0.6200    1.9550    4.9010 hc        1 MOL      0.090366
    109 N10        -1.8380    2.2870   -0.2320 n         1 MOL     -0.119312
    110 C35        -3.0730    2.3330   -0.9920 c3        1 MOL      0.029744
    111 C36        -4.3910    2.0580   -0.1910 c         1 MOL      0.365896
    112 O17        -4.3870    1.7140    0.9630 o         1 MOL     -0.263151
    113 C37        -2.9020    1.2910   -2.1640 c3        1 MOL     -0.398390
    114 C38        -3.9380    1.3330   -3.2590 c         1 MOL      0.660772
    115 N11        -4.0910    2.3960   -4.0310 n         1 MOL     -0.765054
    116 O18        -4.8110    0.4520   -3.4170 o         1 MOL     -0.448445
    117 H50        -1.2080    1.5410   -0.4660 hn        1 MOL      0.105999
    118 H51        -3.1700    3.2810   -1.4970 h1        1 MOL      0.034384
    119 H52        -2.9800    0.3160   -1.6850 hc        1 MOL      0.171569
    120 H53        -1.9100    1.3370   -2.6190 hc        1 MOL      0.171569
    121 H54        -3.5780    3.2610   -3.8910 hn        1 MOL      0.343524
    122 H55        -4.8500    2.5000   -4.6750 hn        1 MOL      0.343524
    123 N12        -5.5930    2.2050   -0.7490 n         1 MOL     -0.454666
    124 C39        -6.8530    1.8700   -0.1450 c3        1 MOL      0.172634
    125 C40        -6.9510    0.3850    0.0060 c         1 MOL      0.724904
    126 O19        -7.2720   -0.1050    1.0450 o         1 MOL     -0.570020
    127 C41        -8.0750    2.4060   -0.9070 c3        1 MOL     -0.224967
    128 C42        -9.3630    1.9470   -0.2970 ca        1 MOL      0.089943
    129 C43       -10.0180    2.6840    0.7660 ca        1 MOL     -0.190157
    130 C44       -10.0580    0.9210   -0.8870 ca        1 MOL     -0.190157
    131 C45       -11.1720    2.2360    1.2760 ca        1 MOL     -0.213809
    132 C46       -11.3860    0.5600   -0.4150 ca        1 MOL     -0.213809
    133 C47       -11.9140    1.2330    0.7410 ca        1 MOL      0.286413
    134 O20       -13.0990    0.8340    1.3870 oh        1 MOL     -0.524423
    135 H56        -5.6310    2.4560   -1.7330 hn        1 MOL      0.236777
    136 H57        -6.9190    2.1840    0.8900 h1        1 MOL      0.028777
    137 H58        -8.0410    1.9940   -1.9170 hc        1 MOL      0.073862
    138 H59        -8.1020    3.4840   -1.0380 hc        1 MOL      0.073862
    139 H60        -9.4950    3.4710    1.2870 ha        1 MOL      0.140121
    140 H61        -9.7010    0.4060   -1.7700 ha        1 MOL      0.140121
    141 H62       -11.5130    2.7690    2.1630 ha        1 MOL      0.135761
    142 H63       -11.8760   -0.2880   -0.8720 ha        1 MOL      0.135761
    143 H64       -13.5320    0.1270    0.8940 ho        1 MOL      0.374888
    144 N13        -6.5730   -0.3630   -0.9900 n         1 MOL     -0.307865
    145 C48        -6.4020   -1.8390   -0.8940 c3        1 MOL     -0.146546
    146 C49        -5.4570   -2.3060    0.2370 c         1 MOL      0.287399
    147 O21        -5.7410   -3.3700    0.8220 o         1 MOL     -0.514130
    148 C50        -6.0570   -2.4090   -2.2940 c3        1 MOL      0.400298
    149 C51        -7.1710   -2.1400   -3.3220 c3        1 MOL     -0.331950
    150 C52        -6.9550   -3.0160   -4.5550 c         1 MOL      0.773187
    151 O22        -8.0060   -3.6010   -4.9660 o         1 MOL     -0.755665
    152 O23        -5.8900   -3.1520   -5.1830 o         1 MOL     -0.755665
    153 H65        -6.2310    0.0640   -1.8460 hn        1 MOL      0.154420
    154 H66        -7.3320   -2.3400   -0.6390 h1        1 MOL      0.104284
    155 H67        -5.9690   -3.4860   -2.2600 hc        1 MOL     -0.072116
    156 H68        -5.0780   -2.0270   -2.6070 hc        1 MOL     -0.072116
    157 H69        -7.0010   -1.0860   -3.5520 hc        1 MOL      0.014197
    158 H70        -8.1690   -2.2410   -2.9070 hc        1 MOL      0.014197
    159 N14        -4.4360   -1.5650    0.5610 n         1 MOL     -0.042372
    160 C53        -3.5650   -1.7830    1.7830 c3        1 MOL     -0.011400
    161 C54        -4.2080   -1.2580    3.0650 c         1 MOL      0.448979
    162 O24        -4.0100   -1.8600    4.1060 o         1 MOL     -0.552965
    163 C55        -2.1420   -1.2680    1.5260 c3        1 MOL      0.023372
    164 C56        -1.3040   -2.0720    0.4470 c3        1 MOL     -0.163898
    165 C57        -0.2060   -1.1060   -0.1700 c         1 MOL      0.714317
    166 O25         0.9650   -1.2080    0.3500 o         1 MOL     -0.730437
    167 O26        -0.4400   -0.2700   -1.0920 o         1 MOL     -0.730437
    168 H71        -4.5500   -0.6200    0.2160 hn        1 MOL      0.034291
    169 H72        -3.4930   -2.8590    1.9590 h1        1 MOL      0.079847
    170 H73        -1.6430   -1.3530    2.4910 hc        1 MOL      0.075929
    171 H74        -2.3660   -0.2330    1.3040 hc        1 MOL      0.075929
    172 H75        -1.9730   -2.4830   -0.3090 hc        1 MOL      0.024152
    173 H76        -0.8150   -2.9340    0.9140 hc        1 MOL      0.024152
    174 N15        -5.1010   -0.2500    2.9850 n         1 MOL      0.057646
    175 C58        -5.8550    0.2620    4.0940 c3        1 MOL     -0.560568
    176 H77        -6.7480   -0.3470    4.2370 h1        1 MOL      0.162360
    177 H78        -5.2440    0.2270    4.9970 h1        1 MOL      0.162360
    178 H79        -6.1470    1.2920    3.8920 h1        1 MOL      0.162360
    179 H80        -5.1720    0.3010    2.1490 hn        1 MOL     -0.016096
    180 Ca1         2.4350   -0.0550   -1.4270 Ca        1 MOL      1.766915
    181 O27         2.1710    2.5820   -2.6360 oh        1 MOL     -0.825787
    182 H81         2.2810    3.4740   -2.2970 ho        1 MOL      0.392582
    183 H82         2.0840    2.6880   -3.5790 ho        1 MOL      0.392582
    184 O28         1.4060   -0.7380   -4.0770 oh        1 MOL     -0.825787
    185 H83         1.6810   -1.6420   -4.2540 ho        1 MOL      0.392582
    186 H84         1.8110   -0.2300   -4.7820 ho        1 MOL      0.392582
@<TRIPOS>BOND
     1    1    2 1   
     2    1    4 1   
     3    1    5 1   
     4    1    6 1   
     5    2    3 2   
     6    2    7 1   
     7    7    8 1   
     8    7   15 1   
     9    8    9 1   
    10    8   11 1   
    11    8   16 1   
    12    9   10 2   
    13    9   19 1   
    14   11   12 1   
    15   11   17 1   
    16   11   18 1   
    17   12   13 1   
    18   12   14 1   
    19   19   20 1   
    20   19   27 1   
    21   20   21 1   
    22   20   23 1   
    23   20   28 1   
    24   21   22 2   
    25   21   38 1   
    26   23   24 1   
    27   23   25 1   
    28   23   29 1   
    29   24   26 1   
    30   24   30 1   
    31   24   31 1   
    32   25   32 1   
    33   25   33 1   
    34   25   34 1   
    35   26   35 1   
    36   26   36 1   
    37   26   37 1   
    38   38   39 1   
    39   38   46 1   
    40   39   40 1   
    41   39   42 1   
    42   39   47 1   
    43   40   41 2   
    44   40   50 1   
    45   42   43 1   
    46   42   48 1   
    47   42   49 1   
    48   43   44 1   
    49   43   45 1   
    50   50   51 1   
    51   50   54 1   
    52   51   52 1   
    53   51   55 1   
    54   51   56 1   
    55   52   53 2   
    56   52   57 1   
    57   57   58 1   
    58   57   65 1   
    59   58   59 1   
    60   58   61 1   
    61   58   66 1   
    62   59   60 2   
    63   59   69 1   
    64   61   62 1   
    65   61   67 1   
    66   61   68 1   
    67   62   63 1   
    68   62   64 1   
    69   69   70 1   
    70   69   73 1   
    71   70   71 1   
    72   70   74 1   
    73   70   75 1   
    74   71   72 2   
    75   71   76 1   
    76   76   77 1   
    77   76   85 1   
    78   77   78 1   
    79   77   80 1   
    80   77   86 1   
    81   78   79 2   
    82   78   93 1   
    83   80   81 1   
    84   80   87 1   
    85   80   88 1   
    86   81   82 1   
    87   81   89 1   
    88   81   90 1   
    89   82   83 1   
    90   82   84 2   
    91   83   91 1   
    92   83   92 1   
    93   93   94 1   
    94   93  100 1   
    95   94   95 1   
    96   94   97 1   
    97   94  101 1   
    98   95   96 2   
    99   95  109 1   
   100   97   98 1   
   101   97   99 1   
   102   97  102 1   
   103   98  103 1   
   104   98  104 1   
   105   98  105 1   
   106   99  106 1   
   107   99  107 1   
   108   99  108 1   
   109  109  110 1   
   110  109  117 1   
   111  110  111 1   
   112  110  113 1   
   113  110  118 1   
   114  111  112 2   
   115  111  123 1   
   116  113  114 1   
   117  113  119 1   
   118  113  120 1   
   119  114  115 1   
   120  114  116 2   
   121  115  121 1   
   122  115  122 1   
   123  123  124 1   
   124  123  135 1   
   125  124  125 1   
   126  124  127 1   
   127  124  136 1   
   128  125  126 2   
   129  125  144 1   
   130  127  128 1   
   131  127  137 1   
   132  127  138 1   
   133  128  129 ar  
   134  128  130 ar  
   135  129  131 ar  
   136  129  139 1   
   137  130  132 ar  
   138  130  140 1   
   139  131  133 ar  
   140  131  141 1   
   141  132  133 ar  
   142  132  142 1   
   143  133  134 1   
   144  134  143 1   
   145  144  145 1   
   146  144  153 1   
   147  145  146 1   
   148  145  148 1   
   149  145  154 1   
   150  146  147 2   
   151  146  159 1   
   152  148  149 1   
   153  148  155 1   
   154  148  156 1   
   155  149  150 1   
   156  149  157 1   
   157  149  158 1   
   158  150  151 1   
   159  150  152 1   
   160  159  160 1   
   161  159  168 1   
   162  160  161 1   
   163  160  163 1   
   164  160  169 1   
   165  161  162 2   
   166  161  174 1   
   167  163  164 1   
   168  163  170 1   
   169  163  171 1   
   170  164  165 1   
   171  164  172 1   
   172  164  173 1   
   173  165  166 1   
   174  165  167 1   
   175  174  175 1   
   176  174  179 1   
   177  175  176 1   
   178  175  177 1   
   179  175  178 1   
   180  181  182 1   
   181  181  183 1   
   182  184  185 1   
   183  184  186 1   
@<TRIPOS>SUBSTRUCTURE
     1 MOL         1 TEMP              0 ****  ****    0 ROOT
