@<TRIPOS>MOLECULE
MOL
  189   185     1     0     0
SMALL
resp


@<TRIPOS>ATOM
      1 C1          0.0630    1.7940    5.6960 c3        1 MOL     -0.148257
      2 C2         -0.4670    1.8450    4.2950 c         1 MOL      0.626473
      3 O1          0.2720    2.2580    3.3630 o         1 MOL     -0.600984
      4 H1          1.0360    2.2830    5.7330 hc        1 MOL      0.044045
      5 H2         -0.6280    2.3080    6.3650 hc        1 MOL      0.044045
      6 H3          0.1670    0.7550    6.0090 hc        1 MOL      0.044045
      7 N1         -1.6620    1.3390    4.0210 n         1 MOL     -0.528991
      8 C3         -2.3180    1.2790    2.6830 c3        1 MOL      0.251484
      9 C4         -2.8990    2.6660    2.1560 c         1 MOL      0.390651
     10 O2         -4.0810    2.9790    2.3160 o         1 MOL     -0.455062
     11 C5         -3.4220    0.1400    2.7520 c3        1 MOL     -0.623279
     12 C6         -4.2550   -0.2190    1.5370 c         1 MOL      0.783446
     13 O3         -3.8910    0.1220    0.3880 o         1 MOL     -0.625270
     14 O4         -5.2950   -0.9210    1.7030 o         1 MOL     -0.625270
     15 H4         -2.2180    0.9320    4.7580 hn        1 MOL      0.310522
     16 H5         -1.5790    0.9490    1.9630 h1        1 MOL      0.050651
     17 H6         -4.1520    0.4390    3.5010 hc        1 MOL      0.160441
     18 H7         -2.8620   -0.7510    3.0510 hc        1 MOL      0.160441
     19 N2         -2.0300    3.4540    1.5670 n         1 MOL     -0.286206
     20 C7         -2.2750    4.8420    1.1700 c3        1 MOL     -0.126432
     21 C8         -3.4280    4.9930    0.1490 c         1 MOL      0.435827
     22 O5         -4.0800    6.0910    0.1300 o         1 MOL     -0.577306
     23 C9         -1.0590    5.6060    0.5950 c3        1 MOL     -0.075920
     24 C10        -0.2230    6.3470    1.7010 c3        1 MOL      0.167321
     25 C11         1.0200    7.0270    1.1200 c3        1 MOL     -0.111522
     26 C12         0.7320    8.1940    0.1750 c3        1 MOL     -0.123942
     27 N3         -0.2010    9.2240    0.6760 n4        1 MOL     -0.285065
     28 H8         -1.2280    2.9430    1.2390 hn        1 MOL      0.307978
     29 H9         -2.6410    5.3990    2.0280 h1        1 MOL      0.118865
     30 H10        -1.3730    6.3450   -0.1380 hc        1 MOL      0.057633
     31 H11        -0.4210    4.9270    0.0260 hc        1 MOL      0.057633
     32 H12         0.0690    5.5600    2.3980 hc        1 MOL     -0.032344
     33 H13        -0.8380    7.1450    2.1140 hc        1 MOL     -0.032344
     34 H14         1.5370    6.2700    0.5410 hc        1 MOL      0.078921
     35 H15         1.5890    7.4040    1.9710 hc        1 MOL      0.078921
     36 H16         0.3320    7.8050   -0.7630 hx        1 MOL      0.117114
     37 H17         1.6610    8.7570    0.0730 hx        1 MOL      0.117114
     38 H18         0.2990    9.7080    1.4060 hn        1 MOL      0.314898
     39 H19        -0.3810    9.9700    0.0120 hn        1 MOL      0.314898
     40 H20        -1.0480    8.7950    1.0250 hn        1 MOL      0.314898
     41 N4         -3.7010    3.9710   -0.7290 n         1 MOL     -0.181949
     42 C13        -4.8450    4.0440   -1.6500 c3        1 MOL     -0.023240
     43 C14        -6.0340    3.0930   -1.3410 c         1 MOL      0.394393
     44 O6         -7.1190    3.2440   -1.9430 o         1 MOL     -0.533794
     45 C15        -4.2640    3.7910   -3.1100 c3        1 MOL     -0.307456
     46 C16        -3.1890    2.7680   -3.1510 c         1 MOL      0.778712
     47 O7         -2.3770    2.8330   -4.0680 o         1 MOL     -0.662925
     48 O8         -3.0020    1.8930   -2.2360 o         1 MOL     -0.662925
     49 H21        -3.0530    3.1990   -0.7260 hn        1 MOL      0.159489
     50 H22        -5.1880    5.0730   -1.5700 h1        1 MOL      0.113550
     51 H23        -3.9220    4.7790   -3.4020 hc        1 MOL      0.092613
     52 H24        -5.0920    3.5150   -3.7700 hc        1 MOL      0.092613
     53 N5         -5.8430    2.1840   -0.4040 n         1 MOL      0.028236
     54 C17        -7.0490    1.5030    0.2000 c3        1 MOL     -0.326062
     55 C18        -7.4940    0.2980   -0.6360 c         1 MOL      0.596391
     56 O9         -8.7140    0.1750   -0.8030 o         1 MOL     -0.589399
     57 H25        -4.9330    1.9650   -0.0290 hn        1 MOL     -0.033258
     58 H26        -7.8400    2.2520    0.2080 h1        1 MOL      0.142519
     59 H27        -6.7000    1.2030    1.1940 h1        1 MOL      0.142519
     60 N6         -6.5990   -0.4600   -1.2310 n         1 MOL     -0.274332
     61 C19        -6.8530   -1.6480   -2.0420 c3        1 MOL     -0.040463
     62 C20        -6.8840   -2.9410   -1.2760 c         1 MOL      0.411543
     63 O10        -7.0710   -4.0440   -1.8400 o         1 MOL     -0.530203
     64 C21        -5.7260   -1.7560   -3.1370 c3        1 MOL     -0.078666
     65 C22        -4.2690   -1.7010   -2.7150 c         1 MOL      0.753118
     66 O11        -3.4340   -1.1360   -3.4070 o         1 MOL     -0.752187
     67 O12        -3.8870   -2.0340   -1.5720 o         1 MOL     -0.752187
     68 H28        -5.6670   -0.2360   -0.9110 hn        1 MOL      0.163098
     69 H29        -7.8110   -1.5940   -2.5660 h1        1 MOL      0.120395
     70 H30        -5.8880   -0.9110   -3.8000 hc        1 MOL      0.038329
     71 H31        -5.9640   -2.6240   -3.7650 hc        1 MOL      0.038329
     72 N7         -6.6160   -2.8800    0.0420 n         1 MOL     -0.241466
     73 C23        -6.5290   -4.0690    0.8690 c3        1 MOL     -0.046713
     74 C24        -5.0690   -4.7020    0.9010 c         1 MOL      0.464128
     75 O13        -4.9530   -5.8190    1.4740 o         1 MOL     -0.567487
     76 H32        -6.2650   -2.0640    0.5180 hn        1 MOL      0.219762
     77 H33        -7.2830   -4.8610    0.7600 h1        1 MOL      0.069343
     78 H34        -6.6130   -3.5650    1.8260 h1        1 MOL      0.069343
     79 N8         -3.9850   -4.0500    0.4570 n         1 MOL     -0.101673
     80 C25        -2.6810   -4.6150    0.3160 c3        1 MOL     -0.377769
     81 C26        -1.6380   -3.5710    0.7850 c         1 MOL      0.654662
     82 O14        -1.6120   -2.4190    0.3350 o         1 MOL     -0.594720
     83 C27        -2.3550   -5.2460   -1.0250 c3        1 MOL      0.558982
     84 C28        -2.9510   -6.6270   -1.0400 c3        1 MOL     -0.509802
     85 O15        -2.9830   -4.5850   -2.1240 oh        1 MOL     -0.697249
     86 H35        -4.1130   -3.0950    0.1530 hn        1 MOL      0.155311
     87 H36        -2.5400   -5.4030    1.0510 h1        1 MOL      0.138895
     88 H37        -1.2870   -5.3440   -1.2200 h1        1 MOL     -0.052728
     89 H38        -3.2960   -3.7060   -1.9030 ho        1 MOL      0.460433
     90 H39        -2.6780   -7.1890   -0.1430 hc        1 MOL      0.137040
     91 H40        -4.0420   -6.6400   -1.0020 hc        1 MOL      0.137040
     92 H41        -2.5970   -7.1780   -1.9100 hc        1 MOL      0.137040
     93 N9         -0.5530   -4.0430    1.4770 n         1 MOL     -0.613274
     94 C29         0.6490   -3.2910    1.7470 c3        1 MOL     -0.045874
     95 C30         1.8330   -3.6050    0.7560 c         1 MOL      0.506289
     96 O16         2.3050   -4.7630    0.6600 o         1 MOL     -0.566009
     97 C31         1.1210   -3.2670    3.2230 c3        1 MOL      0.374076
     98 C32        -0.0180   -3.2660    4.2560 c3        1 MOL      0.075928
     99 C33         1.9110   -1.9830    3.4290 c3        1 MOL     -0.800840
    100 C34         0.3710   -3.5290    5.7320 c3        1 MOL     -0.117848
    101 H42        -0.6110   -4.9260    1.9620 hn        1 MOL      0.327160
    102 H43         0.4210   -2.2530    1.5050 h1        1 MOL      0.154677
    103 H44         1.7980   -4.1020    3.3470 hc        1 MOL     -0.043299
    104 H45        -0.5780   -4.1760    4.0210 hc        1 MOL     -0.018053
    105 H46        -0.7200   -2.4350    4.1710 hc        1 MOL     -0.018053
    106 H47         1.2530   -1.1830    3.0910 hc        1 MOL      0.165346
    107 H48         2.2850   -1.9290    4.4520 hc        1 MOL      0.165346
    108 H49         2.7730   -1.9710    2.7700 hc        1 MOL      0.165346
    109 H50         0.9170   -2.6740    6.1260 hc        1 MOL      0.029255
    110 H51        -0.4070   -3.8010    6.4430 hc        1 MOL      0.029255
    111 H52         1.0420   -4.3780    5.7530 hc        1 MOL      0.029255
    112 N10         2.4340   -2.5940    0.1000 n         1 MOL     -0.073643
    113 C35         3.6250   -2.7260   -0.7620 c3        1 MOL     -0.098566
    114 C36         4.8760   -2.4210    0.0470 c         1 MOL      0.342915
    115 O17         4.8400   -1.8450    1.1280 o         1 MOL     -0.319139
    116 C37         3.5440   -1.8870   -2.0300 c3        1 MOL      0.421039
    117 C38         2.4840   -2.3200   -3.0620 c3        1 MOL     -0.504311
    118 O18         3.1030   -0.5770   -1.6020 oh        1 MOL     -0.652984
    119 H53         1.9570   -1.7040    0.1880 hn        1 MOL      0.083250
    120 H54         3.6120   -3.7230   -1.2030 h1        1 MOL      0.086258
    121 H55         4.5300   -1.7880   -2.4790 h1        1 MOL     -0.053960
    122 H56         2.3080   -0.5930   -1.0720 ho        1 MOL      0.370122
    123 H57         2.2310   -1.5350   -3.7730 hc        1 MOL      0.131768
    124 H58         2.8770   -3.2180   -3.5320 hc        1 MOL      0.131768
    125 H59         1.6650   -2.5940   -2.3960 hc        1 MOL      0.131768
    126 N11         6.0640   -2.7900   -0.4090 n         1 MOL     -0.319491
    127 C39         7.2730   -2.3940    0.1780 c3        1 MOL      0.031838
    128 C40         7.5600   -0.9160    0.2530 c         1 MOL      0.120612
    129 O19         8.1820   -0.4750    1.2180 o         1 MOL     -0.452885
    130 C41         8.5600   -2.9140   -0.5490 c3        1 MOL      0.213953
    131 C42         8.7050   -4.4310   -0.3430 c3        1 MOL     -0.600851
    132 O20         8.5200   -2.7150   -2.0500 oh        1 MOL     -0.668037
    133 H60         6.1310   -3.3180   -1.2660 hn        1 MOL      0.279217
    134 H61         7.3530   -2.7630    1.2010 h1        1 MOL      0.128974
    135 H62         9.4280   -2.3910   -0.1400 h1        1 MOL      0.102272
    136 H63         9.3680   -2.8820   -2.4780 ho        1 MOL      0.425874
    137 H64         9.7510   -4.6330   -0.5980 hc        1 MOL      0.176932
    138 H65         8.5410   -4.6420    0.7130 hc        1 MOL      0.176932
    139 H66         7.9070   -4.8850   -0.9180 hc        1 MOL      0.176932
    140 N12         7.0880   -0.1060   -0.6670 n         1 MOL      0.015277
    141 C43         7.1160    1.3580   -0.5900 c3        1 MOL     -0.133064
    142 C44         6.0900    1.9570    0.3600 c         1 MOL      0.375472
    143 O21         6.4130    2.9520    1.0060 o         1 MOL     -0.496363
    144 C45         7.0890    1.9560   -2.0220 c3        1 MOL     -0.150746
    145 C46         8.3880    1.7320   -2.8020 c3        1 MOL      0.100366
    146 C47         8.3070    2.1650   -4.2650 c3        1 MOL     -0.271003
    147 C48         7.3250    1.3690   -5.1330 c3        1 MOL      0.176194
    148 N13         7.2970    1.9310   -6.4770 n4        1 MOL     -0.404640
    149 H67         6.7920   -0.4020   -1.5960 hn        1 MOL      0.210063
    150 H68         8.0500    1.6650   -0.1230 h1        1 MOL      0.129197
    151 H69         6.9070    3.0240   -1.8940 hc        1 MOL      0.064211
    152 H70         6.2460    1.6160   -2.6180 hc        1 MOL      0.064211
    153 H71         8.6410    0.6780   -2.9170 hc        1 MOL      0.017440
    154 H72         9.1800    2.3450   -2.3700 hc        1 MOL      0.017440
    155 H73         9.3020    2.2130   -4.6970 hc        1 MOL      0.099383
    156 H74         7.9150    3.1800   -4.2460 hc        1 MOL      0.099383
    157 H75         6.3740    1.4980   -4.6370 hx        1 MOL      0.056841
    158 H76         7.5290    0.3110   -5.2250 hx        1 MOL      0.056841
    159 H77         8.2110    1.9920   -6.9080 hn        1 MOL      0.295424
    160 H78         6.7500    1.3680   -7.1200 hn        1 MOL      0.295424
    161 H79         6.7930    2.8090   -6.4960 hn        1 MOL      0.295424
    162 N14         4.9890    1.2400    0.5100 n         1 MOL     -0.113661
    163 C49         3.9300    1.5050    1.5090 c3        1 MOL     -0.160457
    164 C50         4.4970    1.2750    2.9780 c         1 MOL      0.421261
    165 O22         4.2220    2.1390    3.7950 o         1 MOL     -0.507764
    166 C51         2.5930    0.8050    1.2840 c3        1 MOL      0.073780
    167 C52         1.7740    1.6570    0.3260 c3        1 MOL     -0.325542
    168 C53         0.5210    0.8960   -0.1720 c         1 MOL      0.812152
    169 O23        -0.5800    1.5450   -0.1850 o         1 MOL     -0.767449
    170 O24         0.6110   -0.3270   -0.3730 o         1 MOL     -0.767449
    171 H80         4.9230    0.4700   -0.1400 hn        1 MOL      0.118159
    172 H81         3.6400    2.5490    1.5690 h1        1 MOL      0.096287
    173 H82         2.1880    0.7530    2.2930 hc        1 MOL      0.087635
    174 H83         2.7880   -0.2220    1.0100 hc        1 MOL      0.087635
    175 H84         2.3400    1.9470   -0.5530 hc        1 MOL      0.082273
    176 H85         1.4220    2.5610    0.8270 hc        1 MOL      0.082273
    177 N15         5.3660    0.2380    3.1350 n         1 MOL     -0.066455
    178 C54         6.1230    0.0250    4.3740 c3        1 MOL     -0.282148
    179 H86         7.1490    0.3660    4.2340 h1        1 MOL      0.104080
    180 H87         5.6600    0.5890    5.1840 h1        1 MOL      0.104080
    181 H88         6.1240   -1.0360    4.6220 h1        1 MOL      0.104080
    182 H89         5.4650   -0.4530    2.4010 hn        1 MOL      0.156089
    183 Ca1        -1.9090   -0.3610   -1.3170 Ca        1 MOL      1.723559
    184 O25         0.0690    0.5380   -3.1300 oh        1 MOL     -0.736665
    185 H90         0.4430    1.3960   -2.8980 ho        1 MOL      0.372913
    186 H91         0.6780    0.1880   -3.7830 ho        1 MOL      0.372913
    187 O26        -1.1070   -2.6930   -2.5390 oh        1 MOL     -0.736665
    188 H92        -1.5000   -3.5020   -2.2340 ho        1 MOL      0.372913
    189 H93        -0.6690   -2.9270   -3.3540 ho        1 MOL      0.372913
@<TRIPOS>BOND
     1    1    2 1   
     2    1    4 1   
     3    1    5 1   
     4    1    6 1   
     5    2    3 2   
     6    2    7 1   
     7    7    8 1   
     8    7   15 1   
     9    8    9 1   
    10    8   11 1   
    11    8   16 1   
    12    9   10 2   
    13    9   19 1   
    14   11   12 1   
    15   11   17 1   
    16   11   18 1   
    17   12   13 1   
    18   12   14 1   
    19   19   20 1   
    20   19   28 1   
    21   20   21 1   
    22   20   23 1   
    23   20   29 1   
    24   21   22 2   
    25   21   41 1   
    26   23   24 1   
    27   23   30 1   
    28   23   31 1   
    29   24   25 1   
    30   24   32 1   
    31   24   33 1   
    32   25   26 1   
    33   25   34 1   
    34   25   35 1   
    35   26   27 1   
    36   26   36 1   
    37   26   37 1   
    38   27   38 1   
    39   27   39 1   
    40   27   40 1   
    41   41   42 1   
    42   41   49 1   
    43   42   43 1   
    44   42   45 1   
    45   42   50 1   
    46   43   44 2   
    47   43   53 1   
    48   45   46 1   
    49   45   51 1   
    50   45   52 1   
    51   46   47 1   
    52   46   48 1   
    53   53   54 1   
    54   53   57 1   
    55   54   55 1   
    56   54   58 1   
    57   54   59 1   
    58   55   56 2   
    59   55   60 1   
    60   60   61 1   
    61   60   68 1   
    62   61   62 1   
    63   61   64 1   
    64   61   69 1   
    65   62   63 2   
    66   62   72 1   
    67   64   65 1   
    68   64   70 1   
    69   64   71 1   
    70   65   66 1   
    71   65   67 1   
    72   72   73 1   
    73   72   76 1   
    74   73   74 1   
    75   73   77 1   
    76   73   78 1   
    77   74   75 2   
    78   74   79 1   
    79   79   80 1   
    80   79   86 1   
    81   80   81 1   
    82   80   83 1   
    83   80   87 1   
    84   81   82 2   
    85   81   93 1   
    86   83   84 1   
    87   83   85 1   
    88   83   88 1   
    89   84   90 1   
    90   84   91 1   
    91   84   92 1   
    92   85   89 1   
    93   93   94 1   
    94   93  101 1   
    95   94   95 1   
    96   94   97 1   
    97   94  102 1   
    98   95   96 2   
    99   95  112 1   
   100   97   98 1   
   101   97   99 1   
   102   97  103 1   
   103   98  100 1   
   104   98  104 1   
   105   98  105 1   
   106   99  106 1   
   107   99  107 1   
   108   99  108 1   
   109  100  109 1   
   110  100  110 1   
   111  100  111 1   
   112  112  113 1   
   113  112  119 1   
   114  113  114 1   
   115  113  116 1   
   116  113  120 1   
   117  114  115 2   
   118  114  126 1   
   119  116  117 1   
   120  116  118 1   
   121  116  121 1   
   122  117  123 1   
   123  117  124 1   
   124  117  125 1   
   125  118  122 1   
   126  126  127 1   
   127  126  133 1   
   128  127  128 1   
   129  127  130 1   
   130  127  134 1   
   131  128  129 2   
   132  128  140 1   
   133  130  131 1   
   134  130  132 1   
   135  130  135 1   
   136  131  137 1   
   137  131  138 1   
   138  131  139 1   
   139  132  136 1   
   140  140  141 1   
   141  140  149 1   
   142  141  142 1   
   143  141  144 1   
   144  141  150 1   
   145  142  143 2   
   146  142  162 1   
   147  144  145 1   
   148  144  151 1   
   149  144  152 1   
   150  145  146 1   
   151  145  153 1   
   152  145  154 1   
   153  146  147 1   
   154  146  155 1   
   155  146  156 1   
   156  147  148 1   
   157  147  157 1   
   158  147  158 1   
   159  148  159 1   
   160  148  160 1   
   161  148  161 1   
   162  162  163 1   
   163  162  171 1   
   164  163  164 1   
   165  163  166 1   
   166  163  172 1   
   167  164  165 2   
   168  164  177 1   
   169  166  167 1   
   170  166  173 1   
   171  166  174 1   
   172  167  168 1   
   173  167  175 1   
   174  167  176 1   
   175  168  169 1   
   176  168  170 1   
   177  177  178 1   
   178  177  182 1   
   179  178  179 1   
   180  178  180 1   
   181  178  181 1   
   182  184  185 1   
   183  184  186 1   
   184  187  188 1   
   185  187  189 1   
@<TRIPOS>SUBSTRUCTURE
     1 MOL         1 TEMP              0 ****  ****    0 ROOT
