@<TRIPOS>MOLECULE
MOL
  189   185     1     0     0
SMALL
resp


@<TRIPOS>ATOM
      1 C1         -0.4700    1.5800    6.5010 c3        1 MOL     -0.323987
      2 C2         -0.5630    1.4580    4.9480 c         1 MOL      0.723566
      3 O1          0.3390    1.7230    4.1890 o         1 MOL     -0.592424
      4 H1          0.4460    1.1030    6.8470 hc        1 MOL      0.084268
      5 H2         -0.4610    2.6320    6.7830 hc        1 MOL      0.084268
      6 H3         -1.3300    1.0890    6.9560 hc        1 MOL      0.084268
      7 N1         -1.7960    1.0730    4.4660 n         1 MOL     -0.541114
      8 C3         -2.3030    1.1910    3.1130 c3        1 MOL      0.054399
      9 C4         -2.7360    2.6590    2.7670 c         1 MOL      0.378717
     10 O2         -3.7560    3.2120    3.2730 o         1 MOL     -0.514952
     11 C5         -3.5450    0.2370    2.9420 c3        1 MOL     -0.143280
     12 C6         -3.9380   -0.1050    1.5120 c         1 MOL      0.947604
     13 O3         -3.3320    0.5290    0.5930 o         1 MOL     -0.807088
     14 O4         -4.7830   -0.9700    1.2630 o         1 MOL     -0.807088
     15 H4         -2.5260    0.7650    5.0970 hn        1 MOL      0.303491
     16 H5         -1.5300    0.9040    2.4040 h1        1 MOL      0.085288
     17 H6         -4.3870    0.6460    3.5080 hc        1 MOL      0.028165
     18 H7         -3.2420   -0.7210    3.3600 hc        1 MOL      0.028165
     19 N2         -1.9690    3.2710    1.8460 n         1 MOL     -0.078253
     20 C7         -2.1180    4.7030    1.5640 c3        1 MOL     -0.179677
     21 C8         -3.2530    4.9860    0.5640 c         1 MOL      0.506440
     22 O5         -4.0160    5.9270    0.8000 o         1 MOL     -0.568227
     23 C9         -0.7210    5.3150    1.2890 c3        1 MOL     -0.054937
     24 C10        -0.4450    6.7390    0.8320 c3        1 MOL      0.047550
     25 C11         1.0490    6.9780    0.5300 c3        1 MOL      0.007911
     26 C12         1.3600    8.3860    0.1770 c3        1 MOL     -0.072488
     27 N3          1.2960    9.2890    1.3820 n4        1 MOL     -0.416740
     28 H8         -1.4120    2.6010    1.3330 hn        1 MOL      0.082542
     29 H9         -2.3950    5.2300    2.4820 h1        1 MOL      0.116493
     30 H10        -0.2540    4.6210    0.5720 hc        1 MOL      0.053008
     31 H11        -0.1050    5.1700    2.1720 hc        1 MOL      0.053008
     32 H12        -0.7390    7.3570    1.6810 hc        1 MOL      0.007535
     33 H13        -1.0190    7.0300   -0.0480 hc        1 MOL      0.007535
     34 H14         1.3840    6.3390   -0.2830 hc        1 MOL      0.032902
     35 H15         1.5450    6.7750    1.4780 hc        1 MOL      0.032902
     36 H16         0.6170    8.7240   -0.5430 hx        1 MOL      0.120137
     37 H17         2.3340    8.3590   -0.3130 hx        1 MOL      0.120137
     38 H18         1.9980    9.0380    2.0610 hn        1 MOL      0.344391
     39 H19         1.5910   10.2320    1.1420 hn        1 MOL      0.344391
     40 H20         0.4130    9.2780    1.8770 hn        1 MOL      0.344391
     41 N4         -3.2980    4.2780   -0.5480 n         1 MOL     -0.287284
     42 C13        -4.2890    4.3530   -1.6560 c3        1 MOL      0.065009
     43 C14        -5.6050    3.4590   -1.4660 c         1 MOL      0.375645
     44 O6         -6.6540    3.7010   -2.0730 o         1 MOL     -0.504519
     45 C15        -3.6830    3.9840   -3.0540 c3        1 MOL     -0.437423
     46 C16        -2.7500    2.8440   -3.1990 c         1 MOL      0.855512
     47 O7         -2.7690    1.9800   -2.3350 o         1 MOL     -0.733718
     48 O8         -1.9530    2.7660   -4.1740 o         1 MOL     -0.733718
     49 H21        -2.5230    3.6620   -0.7270 hn        1 MOL      0.270349
     50 H22        -4.5910    5.4000   -1.7510 h1        1 MOL      0.089444
     51 H23        -3.2630    4.8750   -3.5290 hc        1 MOL      0.117686
     52 H24        -4.5460    3.7380   -3.6690 hc        1 MOL      0.117686
     53 N5         -5.5520    2.3420   -0.6240 n         1 MOL     -0.058627
     54 C17        -6.7310    1.5360   -0.1960 c3        1 MOL     -0.290707
     55 C18        -7.2780    0.4660   -1.1370 c         1 MOL      0.550269
     56 O9         -8.4450    0.1520   -1.2020 o         1 MOL     -0.547984
     57 H25        -4.6710    2.0340   -0.2410 hn        1 MOL      0.097219
     58 H26        -7.4720    2.2910    0.0610 h1        1 MOL      0.128867
     59 H27        -6.4800    1.0030    0.7120 h1        1 MOL      0.128867
     60 N6         -6.3790   -0.0630   -1.9670 n         1 MOL     -0.288582
     61 C19        -6.6020   -1.2500   -2.7580 c3        1 MOL      0.060222
     62 C20        -6.8950   -2.4660   -1.8440 c         1 MOL      0.429515
     63 O10        -7.5410   -3.4520   -2.2820 o         1 MOL     -0.525580
     64 C21        -5.3840   -1.7240   -3.6610 c3        1 MOL     -0.300142
     65 C22        -4.0220   -1.8370   -2.9240 c         1 MOL      0.910648
     66 O11        -2.9830   -1.4060   -3.4580 o         1 MOL     -0.804723
     67 O12        -4.0100   -2.0200   -1.7040 o         1 MOL     -0.804723
     68 H28        -5.4360    0.3270   -1.9650 hn        1 MOL      0.199695
     69 H29        -7.4780   -1.1510   -3.4000 h1        1 MOL      0.087493
     70 H30        -5.2940   -0.9670   -4.4230 hc        1 MOL      0.084001
     71 H31        -5.5980   -2.6710   -4.1570 hc        1 MOL      0.084001
     72 N7         -6.5140   -2.4890   -0.4930 n         1 MOL     -0.245467
     73 C23        -6.6850   -3.6040    0.4400 c3        1 MOL     -0.127972
     74 C24        -5.4100   -4.4940    0.6520 c         1 MOL      0.552314
     75 O13        -5.6190   -5.6710    1.0860 o         1 MOL     -0.572934
     76 H32        -6.0170   -1.7080   -0.1040 hn        1 MOL      0.310397
     77 H33        -7.4880   -4.2550    0.0810 h1        1 MOL      0.084705
     78 H34        -6.9130   -3.3170    1.4650 h1        1 MOL      0.084705
     79 N8         -4.2050   -3.9540    0.3540 n         1 MOL     -0.265557
     80 C25        -2.8390   -4.5660    0.4890 c3        1 MOL     -0.476640
     81 C26        -1.8060   -3.4990    0.6880 c         1 MOL      0.942035
     82 O14        -1.9910   -2.3400    0.3600 o         1 MOL     -0.755292
     83 C27        -2.5030   -5.3070   -0.8020 c3        1 MOL      0.588040
     84 C28        -3.1440   -6.6660   -0.8080 c3        1 MOL     -0.504253
     85 O15        -2.8600   -4.6510   -2.0010 oh        1 MOL     -0.599651
     86 H35        -4.2310   -2.9770    0.1030 hn        1 MOL      0.352493
     87 H36        -2.8720   -5.2590    1.3360 h1        1 MOL      0.166484
     88 H37        -1.4230   -5.4540   -0.8590 h1        1 MOL     -0.063171
     89 H38        -3.0070   -3.7520   -1.6860 ho        1 MOL      0.334819
     90 H39        -2.6180   -7.2240   -1.5840 hc        1 MOL      0.127563
     91 H40        -3.0020   -7.2110    0.1190 hc        1 MOL      0.127563
     92 H41        -4.1980   -6.4830   -1.0300 hc        1 MOL      0.127563
     93 N9         -0.7450   -3.8760    1.3860 n         1 MOL     -0.664847
     94 C29         0.4740   -3.1090    1.7220 c3        1 MOL      0.112561
     95 C30         1.5630   -3.4850    0.6360 c         1 MOL      0.285610
     96 O16         1.8450   -4.6820    0.4410 o         1 MOL     -0.532678
     97 C31         0.8990   -3.3480    3.1780 c3        1 MOL      0.260346
     98 C32        -0.2470   -2.8800    4.1540 c3        1 MOL      0.104869
     99 C33         2.2690   -2.6740    3.5190 c3        1 MOL     -0.399154
    100 C34         0.1560   -2.9780    5.5980 c3        1 MOL     -0.395857
    101 H42        -0.6650   -4.8310    1.7230 hn        1 MOL      0.290817
    102 H43         0.2070   -2.0740    1.5270 h1        1 MOL      0.060868
    103 H44         1.0390   -4.4210    3.3160 hc        1 MOL     -0.030265
    104 H45        -1.0690   -3.5630    3.9440 hc        1 MOL     -0.017967
    105 H46        -0.4910   -1.8670    3.8070 hc        1 MOL     -0.017967
    106 H47         2.2440   -1.6050    3.7320 hc        1 MOL      0.077346
    107 H48         2.7820   -3.1720    4.3440 hc        1 MOL      0.077346
    108 H49         2.9000   -3.0320    2.7170 hc        1 MOL      0.077346
    109 H50         0.4070   -4.0230    5.7630 hc        1 MOL      0.099927
    110 H51         1.0700   -2.4430    5.8290 hc        1 MOL      0.099927
    111 H52        -0.6350   -2.5180    6.1940 hc        1 MOL      0.099927
    112 N10         2.1610   -2.4860   -0.0600 n         1 MOL      0.145358
    113 C35         3.2400   -2.6820   -1.1620 c3        1 MOL     -0.130364
    114 C36         4.6600   -2.7890   -0.5710 c         1 MOL      0.426507
    115 O17         4.7850   -2.5910    0.6240 o         1 MOL     -0.388966
    116 C37         3.2950   -1.4120   -2.0100 c3        1 MOL      0.048861
    117 C38         2.0510   -1.1050   -2.8520 c3        1 MOL     -0.487586
    118 O18         3.6130   -0.2900   -1.2650 oh        1 MOL     -0.269516
    119 H53         1.6560   -1.6080   -0.0600 hn        1 MOL      0.150216
    120 H54         2.9890   -3.5580   -1.7580 h1        1 MOL      0.081597
    121 H55         4.1400   -1.5820   -2.6680 h1        1 MOL      0.018107
    122 H56         3.1860    0.4680   -1.6740 ho        1 MOL      0.374499
    123 H57         1.6200   -1.9900   -3.3200 hc        1 MOL      0.132545
    124 H58         1.2880   -0.5660   -2.2880 hc        1 MOL      0.132545
    125 H59         2.3510   -0.4390   -3.6590 hc        1 MOL      0.132545
    126 N11         5.7160   -2.9600   -1.3800 n         1 MOL     -0.362311
    127 C39         7.1620   -2.8010   -0.9020 c3        1 MOL     -0.130256
    128 C40         7.3900   -1.4620   -0.2040 c         1 MOL      0.340084
    129 O19         8.1290   -1.3810    0.8160 o         1 MOL     -0.462827
    130 C41         8.2360   -2.9700   -1.9530 c3        1 MOL      0.279500
    131 C42         8.0630   -4.3740   -2.6530 c3        1 MOL     -0.455152
    132 O20         8.2450   -2.0370   -2.9900 oh        1 MOL     -0.598122
    133 H60         5.6090   -3.0050   -2.3810 hn        1 MOL      0.301425
    134 H61         7.3460   -3.5400   -0.1230 h1        1 MOL      0.148971
    135 H62         9.2080   -2.8490   -1.4680 h1        1 MOL      0.057667
    136 H63         9.1860   -1.9910   -3.1710 ho        1 MOL      0.394137
    137 H64         9.0280   -4.8510   -2.8220 hc        1 MOL      0.128166
    138 H65         7.3760   -5.0420   -2.1370 hc        1 MOL      0.128166
    139 H66         7.5360   -4.2570   -3.6020 hc        1 MOL      0.128166
    140 N12         6.8300   -0.3400   -0.7600 n         1 MOL     -0.240382
    141 C43         6.8270    1.0130   -0.2880 c3        1 MOL     -0.010743
    142 C44         6.0950    1.1470    1.0580 c         1 MOL      0.398281
    143 O21         6.6230    1.6900    2.0220 o         1 MOL     -0.528063
    144 C45         6.1550    1.8210   -1.5030 c3        1 MOL     -0.119297
    145 C46         7.2120    2.1480   -2.6390 c3        1 MOL      0.190838
    146 C47         6.5790    3.0290   -3.7060 c3        1 MOL     -0.052505
    147 C48         7.3660    2.8960   -5.0580 c3        1 MOL      0.058188
    148 N13         8.6670    3.5930   -5.1100 n4        1 MOL     -0.331676
    149 H67         6.1070   -0.5030   -1.4400 hn        1 MOL      0.224724
    150 H68         7.8410    1.3860   -0.1180 h1        1 MOL      0.083888
    151 H69         5.7870    2.7970   -1.1860 hc        1 MOL     -0.001040
    152 H70         5.2550    1.3560   -1.9030 hc        1 MOL     -0.001040
    153 H71         7.5720    1.1930   -3.0220 hc        1 MOL     -0.040616
    154 H72         8.0510    2.6750   -2.1930 hc        1 MOL     -0.040616
    155 H73         6.7250    4.0770   -3.4440 hc        1 MOL      0.049388
    156 H74         5.5790    2.7230   -4.0140 hc        1 MOL      0.049388
    157 H75         6.6340    3.2210   -5.7950 hx        1 MOL      0.062997
    158 H76         7.5860    1.8430   -5.2520 hx        1 MOL      0.062997
    159 H77         8.9680    3.4310   -6.0620 hn        1 MOL      0.293971
    160 H78         8.5520    4.5850   -4.9420 hn        1 MOL      0.293971
    161 H79         9.3280    3.1600   -4.4860 hn        1 MOL      0.293971
    162 N14         4.8530    0.6820    1.1390 n         1 MOL     -0.074202
    163 C49         3.9650    0.8340    2.3330 c3        1 MOL     -0.284026
    164 C50         4.5020   -0.1240    3.4540 c         1 MOL      0.538580
    165 O22         4.3080    0.1340    4.5910 o         1 MOL     -0.544729
    166 C51         2.5130    0.4680    2.0520 c3        1 MOL      0.152134
    167 C52         1.8300    1.4880    1.0780 c3        1 MOL     -0.224839
    168 C53         0.4980    1.0410    0.4590 c         1 MOL      0.538723
    169 O23         0.4360   -0.1850    0.1370 o         1 MOL     -0.623225
    170 O24        -0.3070    1.8370    0.0040 o         1 MOL     -0.623225
    171 H80         4.4880    0.3330    0.2700 hn        1 MOL      0.086104
    172 H81         3.9310    1.8640    2.7010 h1        1 MOL      0.128138
    173 H82         1.9030    0.4250    2.9500 hc        1 MOL      0.058628
    174 H83         2.5630   -0.5110    1.5640 hc        1 MOL      0.058628
    175 H84         2.5460    1.8480    0.3350 hc        1 MOL      0.030682
    176 H85         1.6320    2.3830    1.6660 hc        1 MOL      0.030682
    177 N15         5.3020   -1.1730    3.0940 n         1 MOL     -0.094893
    178 C54         5.9930   -2.0520    4.0480 c3        1 MOL     -0.381369
    179 H86         5.4380   -2.0760    4.9860 h1        1 MOL      0.126889
    180 H87         6.0540   -3.0590    3.6360 h1        1 MOL      0.126889
    181 H88         6.9980   -1.6720    4.2310 h1        1 MOL      0.126889
    182 H89         5.6240   -1.1810    2.1430 hn        1 MOL      0.188740
    183 Ca1        -1.8820   -0.2550   -1.3340 Ca        1 MOL      1.788490
    184 O25        -0.4870    0.7500   -3.6510 oh        1 MOL     -0.855208
    185 H90        -0.9890    1.5110   -3.9390 ho        1 MOL      0.396657
    186 H91        -0.1540    0.3730   -4.4730 ho        1 MOL      0.396657
    187 O26        -0.6410   -2.4000   -2.3210 oh        1 MOL     -0.855208
    188 H92         0.0330   -3.0770   -2.3020 ho        1 MOL      0.396657
    189 H93        -1.1700   -2.6200   -3.0860 ho        1 MOL      0.396657
@<TRIPOS>BOND
     1    1    2 1   
     2    1    4 1   
     3    1    5 1   
     4    1    6 1   
     5    2    3 2   
     6    2    7 1   
     7    7    8 1   
     8    7   15 1   
     9    8    9 1   
    10    8   11 1   
    11    8   16 1   
    12    9   10 2   
    13    9   19 1   
    14   11   12 1   
    15   11   17 1   
    16   11   18 1   
    17   12   13 1   
    18   12   14 1   
    19   19   20 1   
    20   19   28 1   
    21   20   21 1   
    22   20   23 1   
    23   20   29 1   
    24   21   22 2   
    25   21   41 1   
    26   23   24 1   
    27   23   30 1   
    28   23   31 1   
    29   24   25 1   
    30   24   32 1   
    31   24   33 1   
    32   25   26 1   
    33   25   34 1   
    34   25   35 1   
    35   26   27 1   
    36   26   36 1   
    37   26   37 1   
    38   27   38 1   
    39   27   39 1   
    40   27   40 1   
    41   41   42 1   
    42   41   49 1   
    43   42   43 1   
    44   42   45 1   
    45   42   50 1   
    46   43   44 2   
    47   43   53 1   
    48   45   46 1   
    49   45   51 1   
    50   45   52 1   
    51   46   47 1   
    52   46   48 1   
    53   53   54 1   
    54   53   57 1   
    55   54   55 1   
    56   54   58 1   
    57   54   59 1   
    58   55   56 2   
    59   55   60 1   
    60   60   61 1   
    61   60   68 1   
    62   61   62 1   
    63   61   64 1   
    64   61   69 1   
    65   62   63 2   
    66   62   72 1   
    67   64   65 1   
    68   64   70 1   
    69   64   71 1   
    70   65   66 1   
    71   65   67 1   
    72   72   73 1   
    73   72   76 1   
    74   73   74 1   
    75   73   77 1   
    76   73   78 1   
    77   74   75 2   
    78   74   79 1   
    79   79   80 1   
    80   79   86 1   
    81   80   81 1   
    82   80   83 1   
    83   80   87 1   
    84   81   82 2   
    85   81   93 1   
    86   83   84 1   
    87   83   85 1   
    88   83   88 1   
    89   84   90 1   
    90   84   91 1   
    91   84   92 1   
    92   85   89 1   
    93   93   94 1   
    94   93  101 1   
    95   94   95 1   
    96   94   97 1   
    97   94  102 1   
    98   95   96 2   
    99   95  112 1   
   100   97   98 1   
   101   97   99 1   
   102   97  103 1   
   103   98  100 1   
   104   98  104 1   
   105   98  105 1   
   106   99  106 1   
   107   99  107 1   
   108   99  108 1   
   109  100  109 1   
   110  100  110 1   
   111  100  111 1   
   112  112  113 1   
   113  112  119 1   
   114  113  114 1   
   115  113  116 1   
   116  113  120 1   
   117  114  115 2   
   118  114  126 1   
   119  116  117 1   
   120  116  118 1   
   121  116  121 1   
   122  117  123 1   
   123  117  124 1   
   124  117  125 1   
   125  118  122 1   
   126  126  127 1   
   127  126  133 1   
   128  127  128 1   
   129  127  130 1   
   130  127  134 1   
   131  128  129 2   
   132  128  140 1   
   133  130  131 1   
   134  130  132 1   
   135  130  135 1   
   136  131  137 1   
   137  131  138 1   
   138  131  139 1   
   139  132  136 1   
   140  140  141 1   
   141  140  149 1   
   142  141  142 1   
   143  141  144 1   
   144  141  150 1   
   145  142  143 2   
   146  142  162 1   
   147  144  145 1   
   148  144  151 1   
   149  144  152 1   
   150  145  146 1   
   151  145  153 1   
   152  145  154 1   
   153  146  147 1   
   154  146  155 1   
   155  146  156 1   
   156  147  148 1   
   157  147  157 1   
   158  147  158 1   
   159  148  159 1   
   160  148  160 1   
   161  148  161 1   
   162  162  163 1   
   163  162  171 1   
   164  163  164 1   
   165  163  166 1   
   166  163  172 1   
   167  164  165 2   
   168  164  177 1   
   169  166  167 1   
   170  166  173 1   
   171  166  174 1   
   172  167  168 1   
   173  167  175 1   
   174  167  176 1   
   175  168  169 1   
   176  168  170 1   
   177  177  178 1   
   178  177  182 1   
   179  178  179 1   
   180  178  180 1   
   181  178  181 1   
   182  184  185 1   
   183  184  186 1   
   184  187  188 1   
   185  187  189 1   
@<TRIPOS>SUBSTRUCTURE
     1 MOL         1 TEMP              0 ****  ****    0 ROOT
