@<TRIPOS>MOLECULE
MOL
  172   171     1     0     0
SMALL
resp


@<TRIPOS>ATOM
      1 C1         -0.0670    4.6210    5.5270 c3        1 MOL     -0.359260
      2 C2         -0.5830    4.6170    4.0600 c         1 MOL      0.709574
      3 O1          0.2280    4.9290    3.1810 o         1 MOL     -0.585320
      4 H1         -0.8980    4.4230    6.2040 hc        1 MOL      0.080122
      5 H2          0.6910    3.8470    5.6490 hc        1 MOL      0.080122
      6 H3          0.3660    5.5940    5.7590 hc        1 MOL      0.080122
      7 N1         -1.7590    4.1020    3.8600 n         1 MOL     -0.577269
      8 C3         -2.2590    3.7630    2.5260 c3        1 MOL      0.117298
      9 C4         -2.5430    4.9230    1.5430 c         1 MOL      0.567927
     10 O2         -2.8950    5.9950    1.9520 o         1 MOL     -0.587109
     11 C5         -3.4970    2.8720    2.7140 c3        1 MOL     -0.029338
     12 C6         -4.1230    2.3600    1.4210 c         1 MOL      0.429757
     13 O3         -5.3360    2.6490    1.2790 o         1 MOL     -0.560008
     14 O4         -3.3650    1.9020    0.5030 o         1 MOL     -0.560008
     15 H4         -2.3910    3.8980    4.6140 hn        1 MOL      0.318170
     16 H5         -1.5110    3.1060    2.0880 h1        1 MOL      0.076759
     17 H6         -4.2750    3.4200    3.2620 hc        1 MOL     -0.012160
     18 H7         -3.2310    2.0150    3.3260 hc        1 MOL     -0.012160
     19 N2         -2.2770    4.6960    0.2790 n         1 MOL     -0.305378
     20 C7         -2.5070    5.4540   -0.8970 c3        1 MOL      0.328807
     21 C8         -3.7120    5.1020   -1.7160 c         1 MOL      0.329690
     22 O5         -4.2240    6.0300   -2.4030 o         1 MOL     -0.572625
     23 C9         -1.1860    5.2500   -1.5890 c3        1 MOL     -0.328208
     24 H8         -1.8510    3.7950    0.1080 hn        1 MOL      0.108237
     25 H9         -2.5810    6.4850   -0.5560 h1        1 MOL     -0.015810
     26 H10        -1.1530    4.2130   -1.8910 hc        1 MOL      0.086941
     27 H11        -1.0750    5.8650   -2.4880 hc        1 MOL      0.086941
     28 H12        -0.3810    5.4280   -0.8830 hc        1 MOL      0.086941
     29 N3         -3.9650    3.8240   -1.8140 n         1 MOL     -0.273756
     30 C10        -4.6320    3.1890   -2.9640 c3        1 MOL      0.167841
     31 C11        -5.8740    2.2980   -2.5770 c         1 MOL      0.289492
     32 O6         -6.6710    1.9780   -3.4290 o         1 MOL     -0.544169
     33 C12        -3.6110    2.3270   -3.7830 c3        1 MOL     -0.148612
     34 C13        -3.1430    1.1140   -2.8600 c         1 MOL      0.702468
     35 O7         -3.8370    0.6470   -1.9470 o         1 MOL     -0.733833
     36 O8         -1.9190    0.8190   -2.8630 o         1 MOL     -0.733833
     37 H13        -3.4580    3.2380   -1.1740 hn        1 MOL      0.301519
     38 H14        -5.0490    3.9160   -3.6720 h1        1 MOL      0.058457
     39 H15        -2.7500    2.9240   -4.0780 hc        1 MOL      0.029200
     40 H16        -4.1590    1.9160   -4.6340 hc        1 MOL      0.029200
     41 N4         -6.1670    2.0870   -1.2950 n         1 MOL      0.001264
     42 C14        -7.3510    1.3760   -0.7930 c3        1 MOL     -0.379642
     43 C15        -7.2980   -0.1510   -0.9180 c         1 MOL      0.731783
     44 O9         -8.2050   -0.8180   -0.4720 o         1 MOL     -0.657566
     45 H17        -5.5530    2.4650   -0.5900 hn        1 MOL      0.057191
     46 H18        -8.1790    1.7710   -1.3690 h1        1 MOL      0.139282
     47 H19        -7.3440    1.5320    0.2890 h1        1 MOL      0.139282
     48 N5         -6.1930   -0.7190   -1.3710 n         1 MOL     -0.567997
     49 C16        -6.1710   -2.1340   -1.8240 c3        1 MOL      0.214831
     50 C17        -6.0210   -3.2230   -0.7060 c         1 MOL      0.341447
     51 O10        -5.9610   -4.3690   -1.0950 o         1 MOL     -0.500242
     52 C18        -5.0550   -2.3690   -2.8890 c3        1 MOL     -0.361384
     53 C19        -3.6050   -2.5380   -2.3750 c         1 MOL      0.671227
     54 N6         -2.7000   -3.0000   -3.1980 n         1 MOL     -0.641287
     55 O11        -3.2350   -2.1810   -1.2700 o         1 MOL     -0.624387
     56 H20        -5.4220   -0.1190   -1.6250 hn        1 MOL      0.341618
     57 H21        -7.1280   -2.3530   -2.3040 h1        1 MOL      0.084288
     58 H22        -5.1310   -1.3980   -3.3940 hc        1 MOL      0.096797
     59 H23        -5.2810   -3.1630   -3.5930 hc        1 MOL      0.096797
     60 H24        -2.8390   -2.9340   -4.1950 hn        1 MOL      0.322544
     61 H25        -1.7430   -3.0490   -2.8960 hn        1 MOL      0.322544
     62 N7         -6.0920   -2.8910    0.5840 n         1 MOL     -0.221275
     63 C20        -6.1010   -3.7730    1.7780 c3        1 MOL     -0.194109
     64 C21        -4.6700   -4.2560    2.1570 c         1 MOL      0.390210
     65 O12        -4.6210   -5.1430    3.0280 o         1 MOL     -0.557572
     66 H26        -6.3810   -1.9450    0.7830 hn        1 MOL      0.258692
     67 H27        -6.7000   -4.6820    1.6960 h1        1 MOL      0.119243
     68 H28        -6.4740   -3.1770    2.6110 h1        1 MOL      0.119243
     69 N8         -3.6140   -3.9920    1.3180 n         1 MOL      0.017873
     70 C22        -2.2850   -4.5510    1.5000 c3        1 MOL     -0.336484
     71 C23        -1.2650   -3.4350    1.4240 c         1 MOL      0.483945
     72 O13        -1.3400   -2.4590    0.7130 o         1 MOL     -0.263456
     73 C24        -2.0370   -5.5410    0.4080 c3        1 MOL      0.611663
     74 C25        -3.0630   -6.7280    0.4340 c3        1 MOL     -0.408278
     75 O14        -2.0570   -5.0000   -0.8950 oh        1 MOL     -0.642767
     76 H29        -3.8670   -3.5270    0.4510 hn        1 MOL      0.207736
     77 H30        -2.1990   -5.1150    2.4310 h1        1 MOL      0.095143
     78 H31        -1.0360   -5.9570    0.5540 h1        1 MOL     -0.088003
     79 H32        -1.4530   -4.2510   -0.9320 ho        1 MOL      0.372401
     80 H33        -2.8840   -7.2370    1.3810 hc        1 MOL      0.097591
     81 H34        -4.1130   -6.4460    0.3550 hc        1 MOL      0.097591
     82 H35        -2.7960   -7.4050   -0.3760 hc        1 MOL      0.097591
     83 N9         -0.2450   -3.5090    2.3110 n         1 MOL     -0.455493
     84 C26         1.0140   -2.7930    2.1490 c3        1 MOL      0.105501
     85 C27         1.6840   -3.1460    0.8860 c         1 MOL      0.310099
     86 O15         1.9100   -4.3230    0.5440 o         1 MOL     -0.524612
     87 C28         2.0170   -3.0660    3.3960 c3        1 MOL     -0.187333
     88 C29         1.2920   -2.5610    4.6590 c3        1 MOL      0.063301
     89 C30         3.3650   -2.3220    3.2250 c3        1 MOL      0.152220
     90 C31         0.6610   -1.1930    4.6190 c3        1 MOL     -0.297352
     91 H36        -0.1810   -4.3290    2.8950 hn        1 MOL      0.284431
     92 H37         0.6460   -1.7680    2.2180 h1        1 MOL      0.056062
     93 H38         2.1370   -4.1480    3.4490 hc        1 MOL      0.052773
     94 H39         1.9960   -2.5200    5.4890 hc        1 MOL      0.007134
     95 H40         0.5760   -3.3040    5.0170 hc        1 MOL      0.007134
     96 H41         3.9780   -2.7490    2.4350 hc        1 MOL     -0.028037
     97 H42         3.1890   -1.2720    2.9680 hc        1 MOL     -0.028037
     98 H43         3.8910   -2.5100    4.1590 hc        1 MOL     -0.028037
     99 H44        -0.2310   -1.2690    3.9970 hc        1 MOL      0.072046
    100 H45         0.4980   -1.0620    5.6860 hc        1 MOL      0.072046
    101 H46         1.3350   -0.4090    4.2660 hc        1 MOL      0.072046
    102 N10         1.9890   -2.1310    0.0970 n         1 MOL     -0.146645
    103 C32         2.7550   -2.1920   -1.1490 c3        1 MOL      0.164382
    104 C33         4.1600   -1.5820   -0.9800 c         1 MOL      0.491353
    105 O16         4.4440   -1.0870    0.1670 o         1 MOL     -0.457985
    106 C34         1.9950   -1.5790   -2.3420 c3        1 MOL     -0.326701
    107 C35         0.5250   -1.9950   -2.4090 c         1 MOL      0.771327
    108 O17        -0.3170   -1.4770   -1.6300 o         1 MOL     -0.699153
    109 O18         0.2140   -2.8930   -3.2480 o         1 MOL     -0.699153
    110 H47         1.8010   -1.1910    0.4220 hn        1 MOL      0.102250
    111 H48         2.9340   -3.2670   -1.2780 h1        1 MOL      0.040245
    112 H49         2.5370   -1.7010   -3.2820 hc        1 MOL      0.074918
    113 H50         1.9670   -0.4980   -2.2140 hc        1 MOL      0.074918
    114 N11         5.0150   -1.5570   -1.9810 n         1 MOL     -0.701305
    115 C36         6.3800   -1.1640   -1.6000 c3        1 MOL      0.545072
    116 C37         6.4860    0.2670   -1.1670 c         1 MOL      0.324196
    117 O19         6.9750    0.4860   -0.0570 o         1 MOL     -0.528762
    118 C38         7.4290   -1.5110   -2.6760 c3        1 MOL     -0.121043
    119 C39         8.9060   -1.3660   -2.2760 ca        1 MOL      0.046953
    120 C40         9.5390   -2.1670   -1.3090 ca        1 MOL     -0.176409
    121 C41         9.5630   -0.2340   -2.7540 ca        1 MOL     -0.176409
    122 C42        10.7860   -1.8250   -0.7960 ca        1 MOL     -0.068999
    123 C43        10.9130    0.0080   -2.3790 ca        1 MOL     -0.068999
    124 C44        11.5430   -0.7670   -1.3590 ca        1 MOL     -0.142460
    125 H51         4.8680   -1.9930   -2.8700 hn        1 MOL      0.342306
    126 H52         6.6970   -1.7910   -0.7670 h1        1 MOL     -0.018320
    127 H53         7.3040   -0.8910   -3.5700 hc        1 MOL      0.019383
    128 H54         7.2560   -2.5400   -2.9720 hc        1 MOL      0.019383
    129 H55         8.9910   -3.0660   -1.0510 ha        1 MOL      0.121841
    130 H56         9.1620    0.4230   -3.5210 ha        1 MOL      0.121841
    131 H57        11.3290   -2.5090   -0.1660 ha        1 MOL      0.093811
    132 H58        11.5010    0.8240   -2.7630 ha        1 MOL      0.093811
    133 H59        12.5480   -0.6060   -1.0310 ha        1 MOL      0.116792
    134 N12         5.8500    1.1930   -1.8400 n         1 MOL     -0.081856
    135 C45         5.8180    2.5610   -1.2740 c3        1 MOL     -0.032048
    136 C46         5.1820    2.7900    0.1240 c         1 MOL      0.369175
    137 O20         5.5470    3.7690    0.7030 o         1 MOL     -0.511413
    138 C47         4.9710    3.3140   -2.3370 c3        1 MOL     -0.018366
    139 C48         5.2180    2.5410   -3.6240 c3        1 MOL      0.077486
    140 C49         5.2360    1.1320   -3.1620 c3        1 MOL     -0.179302
    141 H60         6.7950    3.0590   -1.2810 h1        1 MOL      0.079208
    142 H61         3.9190    3.3180   -2.0340 hc        1 MOL      0.033066
    143 H62         5.2720    4.3640   -2.4520 hc        1 MOL      0.033066
    144 H63         4.4870    2.8150   -4.3840 hc        1 MOL     -0.003016
    145 H64         6.1870    2.8230   -4.0220 hc        1 MOL     -0.003016
    146 H65         4.1970    0.8640   -2.9600 h1        1 MOL      0.088726
    147 H66         5.6600    0.4180   -3.8760 h1        1 MOL      0.088726
    148 N13         4.4590    1.7910    0.6570 n         1 MOL     -0.102105
    149 C50         3.8170    1.7490    2.0010 c3        1 MOL      0.027267
    150 C51         4.7560    1.0090    2.9590 c         1 MOL      0.458088
    151 O21         4.9240    1.5790    4.0390 o         1 MOL     -0.586074
    152 C52         2.4200    1.1690    1.9310 c3        1 MOL     -0.040780
    153 C53         1.4980    2.2000    1.3430 c3        1 MOL      0.136618
    154 C54         0.2760    1.6060    0.6740 c         1 MOL      0.485202
    155 O22        -0.2200    0.5900    1.2740 o         1 MOL     -0.693595
    156 O23        -0.2980    2.1080   -0.3660 o         1 MOL     -0.693595
    157 H67         4.3500    0.9830    0.0680 hn        1 MOL      0.086073
    158 H68         3.6140    2.7860    2.2900 h1        1 MOL      0.062463
    159 H69         2.1150    0.9260    2.9420 hc        1 MOL      0.057820
    160 H70         2.4450    0.2070    1.4170 hc        1 MOL      0.057820
    161 H71         2.0670    2.7180    0.5740 hc        1 MOL     -0.008667
    162 H72         1.1900    2.9050    2.1130 hc        1 MOL     -0.008667
    163 N14         5.5130    0.0400    2.5350 n         1 MOL     -0.094992
    164 C55         6.6320   -0.5390    3.3480 c3        1 MOL     -0.172427
    165 H73         7.5610   -0.4800    2.7810 h1        1 MOL      0.068689
    166 H74         6.7370    0.0240    4.2760 h1        1 MOL      0.068689
    167 H75         6.4130   -1.5820    3.5780 h1        1 MOL      0.068689
    168 H76         5.2980   -0.5060    1.7230 hn        1 MOL      0.145102
    169 Ca1        -2.0170   -0.1160   -0.3110 Ca        1 MOL      1.717141
    170 O24        -3.5540   -0.9500    1.9550 oh        1 MOL     -1.109088
    171 H77        -4.4540   -0.6060    1.9460 ho        1 MOL      0.489733
    172 H78        -3.2910   -0.9180    2.8690 ho        1 MOL      0.489733
@<TRIPOS>BOND
     1    1    2 1   
     2    1    4 1   
     3    1    5 1   
     4    1    6 1   
     5    2    3 2   
     6    2    7 1   
     7    7    8 1   
     8    7   15 1   
     9    8    9 1   
    10    8   11 1   
    11    8   16 1   
    12    9   10 2   
    13    9   19 1   
    14   11   12 1   
    15   11   17 1   
    16   11   18 1   
    17   12   13 1   
    18   12   14 1   
    19   19   20 1   
    20   19   24 1   
    21   20   21 1   
    22   20   23 1   
    23   20   25 1   
    24   21   22 2   
    25   21   29 1   
    26   23   26 1   
    27   23   27 1   
    28   23   28 1   
    29   29   30 1   
    30   29   37 1   
    31   30   31 1   
    32   30   33 1   
    33   30   38 1   
    34   31   32 2   
    35   31   41 1   
    36   33   34 1   
    37   33   39 1   
    38   33   40 1   
    39   34   35 1   
    40   34   36 1   
    41   41   42 1   
    42   41   45 1   
    43   42   43 1   
    44   42   46 1   
    45   42   47 1   
    46   43   44 2   
    47   43   48 1   
    48   48   49 1   
    49   48   56 1   
    50   49   50 1   
    51   49   52 1   
    52   49   57 1   
    53   50   51 2   
    54   50   62 1   
    55   52   53 1   
    56   52   58 1   
    57   52   59 1   
    58   53   54 1   
    59   53   55 2   
    60   54   60 1   
    61   54   61 1   
    62   62   63 1   
    63   62   66 1   
    64   63   64 1   
    65   63   67 1   
    66   63   68 1   
    67   64   65 2   
    68   64   69 1   
    69   69   70 1   
    70   69   76 1   
    71   70   71 1   
    72   70   73 1   
    73   70   77 1   
    74   71   72 2   
    75   71   83 1   
    76   73   74 1   
    77   73   75 1   
    78   73   78 1   
    79   74   80 1   
    80   74   81 1   
    81   74   82 1   
    82   75   79 1   
    83   83   84 1   
    84   83   91 1   
    85   84   85 1   
    86   84   87 1   
    87   84   92 1   
    88   85   86 2   
    89   85  102 1   
    90   87   88 1   
    91   87   89 1   
    92   87   93 1   
    93   88   90 1   
    94   88   94 1   
    95   88   95 1   
    96   89   96 1   
    97   89   97 1   
    98   89   98 1   
    99   90   99 1   
   100   90  100 1   
   101   90  101 1   
   102  102  103 1   
   103  102  110 1   
   104  103  104 1   
   105  103  106 1   
   106  103  111 1   
   107  104  105 2   
   108  104  114 1   
   109  106  107 1   
   110  106  112 1   
   111  106  113 1   
   112  107  108 1   
   113  107  109 1   
   114  114  115 1   
   115  114  125 1   
   116  115  116 1   
   117  115  118 1   
   118  115  126 1   
   119  116  117 2   
   120  116  134 1   
   121  118  119 1   
   122  118  127 1   
   123  118  128 1   
   124  119  120 ar  
   125  119  121 ar  
   126  120  122 ar  
   127  120  129 1   
   128  121  123 ar  
   129  121  130 1   
   130  122  124 ar  
   131  122  131 1   
   132  123  124 ar  
   133  123  132 1   
   134  124  133 1   
   135  134  135 1   
   136  134  140 1   
   137  135  136 1   
   138  135  138 1   
   139  135  141 1   
   140  136  137 2   
   141  136  148 1   
   142  138  139 1   
   143  138  142 1   
   144  138  143 1   
   145  139  140 1   
   146  139  144 1   
   147  139  145 1   
   148  140  146 1   
   149  140  147 1   
   150  148  149 1   
   151  148  157 1   
   152  149  150 1   
   153  149  152 1   
   154  149  158 1   
   155  150  151 2   
   156  150  163 1   
   157  152  153 1   
   158  152  159 1   
   159  152  160 1   
   160  153  154 1   
   161  153  161 1   
   162  153  162 1   
   163  154  155 1   
   164  154  156 1   
   165  163  164 1   
   166  163  168 1   
   167  164  165 1   
   168  164  166 1   
   169  164  167 1   
   170  170  171 1   
   171  170  172 1   
@<TRIPOS>SUBSTRUCTURE
     1 MOL         1 TEMP              0 ****  ****    0 ROOT
