@<TRIPOS>MOLECULE
MOL
  186   183     1     0     0
SMALL
resp


@<TRIPOS>ATOM
      1 C1          0.0930    2.5160   -5.6160 c3        1 MOL     -0.359129
      2 C2          0.5150    2.4890   -4.1460 c         1 MOL      0.731862
      3 O1         -0.3200    2.7830   -3.2860 o         1 MOL     -0.599542
      4 H1          0.9690    2.6840   -6.2420 hc        1 MOL      0.093904
      5 H2         -0.3660    1.5630   -5.8800 hc        1 MOL      0.093904
      6 H3         -0.6250    3.3210   -5.7730 hc        1 MOL      0.093904
      7 N1          1.7690    2.0940   -3.7950 n         1 MOL     -0.654421
      8 C3          2.2330    1.7660   -2.4240 c3        1 MOL      0.428296
      9 C4          2.5980    3.0980   -1.7240 c         1 MOL      0.180048
     10 O2          3.5980    3.8230   -2.0370 o         1 MOL     -0.526119
     11 C5          3.4760    0.8360   -2.4570 c3        1 MOL     -0.641800
     12 C6          4.1150    0.5120   -1.1490 c         1 MOL      0.878818
     13 O3          5.2220    0.0150   -1.2450 o         1 MOL     -0.582963
     14 O4          3.4340    0.7330   -0.0880 o         1 MOL     -0.582963
     15 H4          2.4170    2.0210   -4.5780 hn        1 MOL      0.333449
     16 H5          1.4590    1.3190   -1.7950 h1        1 MOL      0.011833
     17 H6          4.2540    1.4370   -2.9220 hc        1 MOL      0.149490
     18 H7          3.1610   -0.0690   -2.9810 hc        1 MOL      0.149490
     19 N2          1.9530    3.3400   -0.5680 n         1 MOL     -0.008075
     20 C7          2.1380    4.6110    0.1880 c3        1 MOL      0.334543
     21 C8          3.2310    4.4590    1.2540 c         1 MOL      0.303357
     22 O5          3.3690    5.3370    2.1110 o         1 MOL     -0.518045
     23 C9          0.7910    5.1270    0.6970 c3        1 MOL      0.069462
     24 C10        -0.0930    5.6740   -0.4790 c3        1 MOL     -0.110168
     25 C11         0.3740    6.8640   -1.1990 c3        1 MOL     -0.197608
     26 C12        -0.7350    7.2990   -2.0980 c3        1 MOL      0.249162
     27 N3         -0.5620    8.7510   -2.5250 n4        1 MOL     -0.480241
     28 H8          1.2640    2.7120   -0.1900 hn        1 MOL      0.151591
     29 H9          2.6100    5.3510   -0.4490 h1        1 MOL     -0.047278
     30 H10         1.0640    6.0430    1.2210 hc        1 MOL     -0.001621
     31 H11         0.2990    4.4500    1.3920 hc        1 MOL     -0.001621
     32 H12        -1.0230    6.0140   -0.0290 hc        1 MOL      0.043630
     33 H13        -0.2640    4.7980   -1.1150 hc        1 MOL      0.043630
     34 H14         1.3060    6.5800   -1.6940 hc        1 MOL      0.063182
     35 H15         0.5760    7.6190   -0.4380 hc        1 MOL      0.063182
     36 H16        -1.6920    7.2670   -1.5620 hx        1 MOL      0.045699
     37 H17        -0.8570    6.6080   -2.9320 hx        1 MOL      0.045699
     38 H18        -1.3630    8.9830   -3.1030 hn        1 MOL      0.346976
     39 H19        -0.4950    9.3770   -1.7360 hn        1 MOL      0.346976
     40 H20         0.2720    8.8810   -3.0800 hn        1 MOL      0.346976
     41 N4          3.8220    3.2070    1.3540 n         1 MOL      0.085882
     42 C13         4.8400    2.7980    2.3680 c3        1 MOL     -0.274807
     43 C14         6.2620    2.4940    1.9150 c         1 MOL      0.528503
     44 O6          7.2250    2.7300    2.6580 o         1 MOL     -0.511757
     45 C15         4.3790    1.5820    3.1320 c3        1 MOL      0.138096
     46 C16         2.9150    1.7190    3.6170 c         1 MOL      0.503816
     47 O7          2.6040    2.6210    4.4370 o         1 MOL     -0.596258
     48 O8          2.0520    1.0200    3.0870 o         1 MOL     -0.596258
     49 H21         3.5390    2.4950    0.7030 hn        1 MOL     -0.234216
     50 H22         4.9020    3.6440    3.0550 h1        1 MOL      0.130952
     51 H23         5.0000    1.3850    4.0040 hc        1 MOL      0.013575
     52 H24         4.4690    0.6860    2.5150 hc        1 MOL      0.013575
     53 N5          6.4160    2.0640    0.6490 n         1 MOL     -0.427358
     54 C17         7.7230    1.6320    0.1930 c3        1 MOL      0.002180
     55 C18         8.1010    0.2330    0.7850 c         1 MOL      0.361268
     56 O9          9.2310   -0.0730    1.1710 o         1 MOL     -0.527122
     57 H25         5.6330    1.7710    0.0860 hn        1 MOL      0.338702
     58 H26         8.4390    2.4170    0.4240 h1        1 MOL      0.070487
     59 H27         7.7010    1.6240   -0.8960 h1        1 MOL      0.070487
     60 N6          7.0130   -0.5850    0.9820 n         1 MOL      0.066044
     61 C19         7.0730   -1.9400    1.5310 c3        1 MOL     -0.188125
     62 C20         6.8570   -2.9420    0.4330 c         1 MOL      0.575209
     63 O10         6.9870   -4.1160    0.6940 o         1 MOL     -0.541883
     64 C21         6.0680   -2.1050    2.7140 c3        1 MOL     -0.055390
     65 C22         4.5650   -1.8330    2.3600 c         1 MOL      0.386337
     66 O11         4.2000   -1.6680    1.1800 o         1 MOL     -0.644438
     67 O12         3.6920   -1.8490    3.2610 o         1 MOL     -0.644438
     68 H28         6.1790   -0.3150    0.4700 hn        1 MOL     -0.139311
     69 H29         8.0820   -2.1620    1.8950 h1        1 MOL      0.127032
     70 H30         6.3350   -1.4980    3.5770 hc        1 MOL      0.073123
     71 H31         6.2410   -3.0750    3.1820 hc        1 MOL      0.073123
     72 N7          6.5190   -2.4930   -0.8100 n         1 MOL     -0.422583
     73 C23         6.3920   -3.5160   -1.8560 c3        1 MOL     -0.001344
     74 C24         5.0800   -4.3130   -1.7240 c         1 MOL      0.466505
     75 O13         4.8300   -5.3860   -2.2580 o         1 MOL     -0.550680
     76 H32         6.2000   -1.5330   -0.9140 hn        1 MOL      0.312984
     77 H33         7.2300   -4.2100   -1.8830 h1        1 MOL      0.071277
     78 H34         6.4480   -3.0390   -2.8370 h1        1 MOL      0.071277
     79 N8          4.0880   -3.6650   -1.0740 n         1 MOL     -0.228669
     80 C25         2.7970   -4.1840   -0.7680 c3        1 MOL     -0.001564
     81 C26         1.6410   -3.2860   -1.2300 c         1 MOL      0.494794
     82 O14         1.7170   -2.0260   -1.1020 o         1 MOL     -0.626759
     83 C27         2.5130   -4.7050    0.6720 c3        1 MOL      0.253600
     84 C28         3.8100   -5.3580    1.1910 c3        1 MOL     -0.383010
     85 O15         2.1470   -3.6680    1.5680 oh        1 MOL     -0.654621
     86 H35         4.4180   -2.8570   -0.5690 hn        1 MOL      0.159758
     87 H36         2.7390   -5.0500   -1.4350 h1        1 MOL      0.057717
     88 H37         1.6930   -5.4190    0.6040 h1        1 MOL      0.024260
     89 H38         2.8160   -3.7080    2.2640 ho        1 MOL      0.451779
     90 H39         3.6350   -5.7360    2.2050 hc        1 MOL      0.117321
     91 H40         4.2490   -6.1650    0.6030 hc        1 MOL      0.117321
     92 H41         4.5370   -4.5620    1.3600 hc        1 MOL      0.117321
     93 N9          0.4440   -3.8690   -1.4340 n         1 MOL     -0.456545
     94 C29        -0.7330   -3.1020   -1.9030 c3        1 MOL     -0.016134
     95 C30        -1.9520   -3.5640   -1.1190 c         1 MOL      0.691108
     96 O16        -2.3670   -4.6840   -1.4030 o         1 MOL     -0.581107
     97 C31        -1.0240   -2.9670   -3.4020 c3        1 MOL      0.220844
     98 C32         0.2330   -2.8280   -4.2860 c3        1 MOL      0.292526
     99 C33        -2.0240   -1.8370   -3.5910 c3        1 MOL     -0.673026
    100 C34         0.1530   -3.1300   -5.7920 c3        1 MOL     -0.305082
    101 H42         0.4420   -4.8750   -1.5240 hn        1 MOL      0.287382
    102 H43        -0.7000   -2.0850   -1.5240 h1        1 MOL      0.090550
    103 H44        -1.3770   -3.9920   -3.5320 hc        1 MOL     -0.037436
    104 H45         1.0120   -3.4980   -3.9130 hc        1 MOL     -0.031594
    105 H46         0.6710   -1.8420   -4.1730 hc        1 MOL     -0.031594
    106 H47        -1.6310   -0.8530   -3.3280 hc        1 MOL      0.153906
    107 H48        -2.1360   -1.7090   -4.6670 hc        1 MOL      0.153906
    108 H49        -2.9740   -2.0790   -3.1160 hc        1 MOL      0.153906
    109 H50        -0.8540   -3.1100   -6.1970 hc        1 MOL      0.056317
    110 H51         0.7190   -2.3640   -6.3310 hc        1 MOL      0.056317
    111 H52         0.4990   -4.1520   -5.9290 hc        1 MOL      0.056317
    112 N10        -2.4970   -2.8390   -0.1350 n         1 MOL     -0.607132
    113 C35        -3.8460   -3.0750    0.4580 c3        1 MOL      0.244761
    114 C36        -5.0410   -2.5940   -0.3670 c         1 MOL      0.381601
    115 O17        -4.8220   -1.8530   -1.3480 o         1 MOL     -0.398981
    116 C37        -3.9470   -2.3350    1.7920 c3        1 MOL     -0.144047
    117 C38        -2.8170   -2.8620    2.7350 c3        1 MOL     -0.271875
    118 O18        -3.8560   -0.9330    1.6760 oh        1 MOL     -0.367510
    119 H53        -2.0130   -1.9800    0.0750 hn        1 MOL      0.403276
    120 H54        -4.0070   -4.1360    0.5970 h1        1 MOL      0.043666
    121 H55        -4.8870   -2.6200    2.2630 h1        1 MOL      0.066213
    122 H56        -3.2200   -0.6170    2.3220 ho        1 MOL      0.393385
    123 H57        -2.8490   -2.5530    3.7840 hc        1 MOL      0.095982
    124 H58        -2.7940   -3.9460    2.8250 hc        1 MOL      0.095982
    125 H59        -1.8080   -2.5710    2.4490 hc        1 MOL      0.095982
    126 N11        -6.2750   -2.8060    0.0440 n         1 MOL     -0.363356
    127 C39        -7.4950   -2.1670   -0.5360 c3        1 MOL     -0.023255
    128 C40        -7.4910   -0.6770   -0.2810 c         1 MOL      0.320169
    129 O19        -8.0430    0.0630   -1.1480 o         1 MOL     -0.487195
    130 C41        -8.8570   -2.7180    0.0470 c3        1 MOL      0.151383
    131 C42        -8.9950   -4.1760   -0.4210 c3        1 MOL     -0.509455
    132 O20        -8.7560   -2.9360    1.4700 oh        1 MOL     -0.633291
    133 H60        -6.3400   -3.3990    0.8590 hn        1 MOL      0.283837
    134 H61        -7.5170   -2.2800   -1.6180 h1        1 MOL      0.169168
    135 H62        -9.6450   -2.0170   -0.2020 h1        1 MOL      0.107280
    136 H63        -9.5970   -3.3660    1.6430 ho        1 MOL      0.422273
    137 H64        -8.7190   -4.2060   -1.4710 hc        1 MOL      0.155518
    138 H65        -8.2880   -4.7520    0.1730 hc        1 MOL      0.155518
    139 H66       -10.0020   -4.5320   -0.1910 hc        1 MOL      0.155518
    140 N12        -6.9640   -0.1010    0.8310 n         1 MOL     -0.217350
    141 C43        -7.0030    1.3280    0.9210 c3        1 MOL      0.052668
    142 C44        -5.9740    2.0290    0.0700 c         1 MOL      0.294089
    143 O21        -6.2050    3.2110   -0.3860 o         1 MOL     -0.506129
    144 C45        -6.8230    1.7810    2.3650 c3        1 MOL     -0.120722
    145 C46        -7.9910    1.5360    3.3380 c3        1 MOL      0.297992
    146 C47        -7.5510    1.9900    4.7510 c3        1 MOL     -0.342869
    147 C48        -6.8410    0.9860    5.6940 c3        1 MOL      0.079651
    148 N13        -7.8290    0.1010    6.3210 n4        1 MOL     -0.220329
    149 H67        -6.5380   -0.6590    1.5620 hn        1 MOL      0.270498
    150 H68        -7.9370    1.8030    0.5950 h1        1 MOL      0.095248
    151 H69        -6.7810    2.8580    2.2150 hc        1 MOL      0.024893
    152 H70        -5.8760    1.3110    2.6520 hc        1 MOL      0.024893
    153 H71        -8.2010    0.4640    3.3140 hc        1 MOL     -0.055532
    154 H72        -8.9220    2.0390    3.0700 hc        1 MOL     -0.055532
    155 H73        -8.3240    2.4940    5.3240 hc        1 MOL      0.129047
    156 H74        -6.8400    2.8080    4.6510 hc        1 MOL      0.129047
    157 H75        -6.3530    1.5860    6.4640 hx        1 MOL      0.063047
    158 H76        -6.0410    0.5180    5.1320 hx        1 MOL      0.063047
    159 H77        -7.2850   -0.6680    6.6830 hn        1 MOL      0.238513
    160 H78        -8.3160    0.5110    7.1060 hn        1 MOL      0.238513
    161 H79        -8.5530   -0.2390    5.7080 hn        1 MOL      0.238513
    162 N14        -4.8590    1.3050   -0.2160 n         1 MOL      0.036670
    163 C49        -3.9190    1.8600   -1.2060 c3        1 MOL     -0.387798
    164 C50        -4.4480    1.7660   -2.6440 c         1 MOL      0.633196
    165 O22        -4.0250    2.5550   -3.4450 o         1 MOL     -0.571621
    166 C51        -2.5360    1.2960   -0.9790 c3        1 MOL      0.289085
    167 C52        -1.9310    1.5200    0.3610 c3        1 MOL     -0.023554
    168 C53        -0.6790    0.6750    0.4730 c         1 MOL      0.631195
    169 O23        -0.6200   -0.5880    0.3440 o         1 MOL     -0.739346
    170 O24         0.4220    1.2490    0.7070 o         1 MOL     -0.739346
    171 H80        -4.7780    0.4630    0.3480 hn        1 MOL      0.009635
    172 H81        -3.9800    2.9290   -1.0190 h1        1 MOL      0.130598
    173 H82        -1.8110    1.6340   -1.7080 hc        1 MOL     -0.006838
    174 H83        -2.6020    0.2470   -1.2530 hc        1 MOL     -0.006838
    175 H84        -2.5740    1.0150    1.0770 hc        1 MOL     -0.042571
    176 H85        -1.8740    2.5840    0.5500 hc        1 MOL     -0.042571
    177 N15        -5.3240    0.8300   -2.9640 n         1 MOL     -0.201509
    178 C54        -6.1510    0.8330   -4.2340 c3        1 MOL     -0.288565
    179 H86        -6.5100   -0.1770   -4.4350 h1        1 MOL      0.118785
    180 H87        -7.0030    1.5020   -4.1120 h1        1 MOL      0.118785
    181 H88        -5.5370    1.1730   -5.0680 h1        1 MOL      0.118785
    182 H89        -5.6060    0.1380   -2.2860 hn        1 MOL      0.172767
    183 Ca1         1.8590   -0.7680    1.2230 Ca        1 MOL      1.773099
    184 O25         0.3600   -1.4460    3.4090 oh        1 MOL     -0.822068
    185 H90        -0.3950   -0.9330    3.6920 ho        1 MOL      0.395833
    186 H91         0.9870   -1.3630    4.1250 ho        1 MOL      0.395833
@<TRIPOS>BOND
     1    1    2 1   
     2    1    4 1   
     3    1    5 1   
     4    1    6 1   
     5    2    3 2   
     6    2    7 1   
     7    7    8 1   
     8    7   15 1   
     9    8    9 1   
    10    8   11 1   
    11    8   16 1   
    12    9   10 2   
    13    9   19 1   
    14   11   12 1   
    15   11   17 1   
    16   11   18 1   
    17   12   13 1   
    18   12   14 1   
    19   19   20 1   
    20   19   28 1   
    21   20   21 1   
    22   20   23 1   
    23   20   29 1   
    24   21   22 2   
    25   21   41 1   
    26   23   24 1   
    27   23   30 1   
    28   23   31 1   
    29   24   25 1   
    30   24   32 1   
    31   24   33 1   
    32   25   26 1   
    33   25   34 1   
    34   25   35 1   
    35   26   27 1   
    36   26   36 1   
    37   26   37 1   
    38   27   38 1   
    39   27   39 1   
    40   27   40 1   
    41   41   42 1   
    42   41   49 1   
    43   42   43 1   
    44   42   45 1   
    45   42   50 1   
    46   43   44 2   
    47   43   53 1   
    48   45   46 1   
    49   45   51 1   
    50   45   52 1   
    51   46   47 1   
    52   46   48 1   
    53   53   54 1   
    54   53   57 1   
    55   54   55 1   
    56   54   58 1   
    57   54   59 1   
    58   55   56 2   
    59   55   60 1   
    60   60   61 1   
    61   60   68 1   
    62   61   62 1   
    63   61   64 1   
    64   61   69 1   
    65   62   63 2   
    66   62   72 1   
    67   64   65 1   
    68   64   70 1   
    69   64   71 1   
    70   65   66 1   
    71   65   67 1   
    72   72   73 1   
    73   72   76 1   
    74   73   74 1   
    75   73   77 1   
    76   73   78 1   
    77   74   75 2   
    78   74   79 1   
    79   79   80 1   
    80   79   86 1   
    81   80   81 1   
    82   80   83 1   
    83   80   87 1   
    84   81   82 2   
    85   81   93 1   
    86   83   84 1   
    87   83   85 1   
    88   83   88 1   
    89   84   90 1   
    90   84   91 1   
    91   84   92 1   
    92   85   89 1   
    93   93   94 1   
    94   93  101 1   
    95   94   95 1   
    96   94   97 1   
    97   94  102 1   
    98   95   96 2   
    99   95  112 1   
   100   97   98 1   
   101   97   99 1   
   102   97  103 1   
   103   98  100 1   
   104   98  104 1   
   105   98  105 1   
   106   99  106 1   
   107   99  107 1   
   108   99  108 1   
   109  100  109 1   
   110  100  110 1   
   111  100  111 1   
   112  112  113 1   
   113  112  119 1   
   114  113  114 1   
   115  113  116 1   
   116  113  120 1   
   117  114  115 2   
   118  114  126 1   
   119  116  117 1   
   120  116  118 1   
   121  116  121 1   
   122  117  123 1   
   123  117  124 1   
   124  117  125 1   
   125  118  122 1   
   126  126  127 1   
   127  126  133 1   
   128  127  128 1   
   129  127  130 1   
   130  127  134 1   
   131  128  129 2   
   132  128  140 1   
   133  130  131 1   
   134  130  132 1   
   135  130  135 1   
   136  131  137 1   
   137  131  138 1   
   138  131  139 1   
   139  132  136 1   
   140  140  141 1   
   141  140  149 1   
   142  141  142 1   
   143  141  144 1   
   144  141  150 1   
   145  142  143 2   
   146  142  162 1   
   147  144  145 1   
   148  144  151 1   
   149  144  152 1   
   150  145  146 1   
   151  145  153 1   
   152  145  154 1   
   153  146  147 1   
   154  146  155 1   
   155  146  156 1   
   156  147  148 1   
   157  147  157 1   
   158  147  158 1   
   159  148  159 1   
   160  148  160 1   
   161  148  161 1   
   162  162  163 1   
   163  162  171 1   
   164  163  164 1   
   165  163  166 1   
   166  163  172 1   
   167  164  165 2   
   168  164  177 1   
   169  166  167 1   
   170  166  173 1   
   171  166  174 1   
   172  167  168 1   
   173  167  175 1   
   174  167  176 1   
   175  168  169 1   
   176  168  170 1   
   177  177  178 1   
   178  177  182 1   
   179  178  179 1   
   180  178  180 1   
   181  178  181 1   
   182  184  185 1   
   183  184  186 1   
@<TRIPOS>SUBSTRUCTURE
     1 MOL         1 TEMP              0 ****  ****    0 ROOT
