@<TRIPOS>MOLECULE
MOL
  189   185     1     0     0
SMALL
resp


@<TRIPOS>ATOM
      1 C1         -0.5990    3.9570   -4.8500 c3        1 MOL     -0.284356
      2 C2         -0.0000    3.5950   -3.4770 c         1 MOL      0.780471
      3 O1         -0.6770    4.0160   -2.5460 o         1 MOL     -0.586740
      4 H1         -0.8550    3.0440   -5.3870 hc        1 MOL      0.067630
      5 H2         -1.4970    4.5580   -4.7070 hc        1 MOL      0.067630
      6 H3          0.1300    4.5250   -5.4270 hc        1 MOL      0.067630
      7 N1          1.1410    2.9090   -3.4420 n         1 MOL     -0.746622
      8 C3          1.8200    2.4740   -2.2090 c3        1 MOL      0.390315
      9 C4          2.5060    3.6440   -1.4970 c         1 MOL      0.388969
     10 O2          3.1090    4.5080   -2.0980 o         1 MOL     -0.568102
     11 C5          2.8340    1.3020   -2.3750 c3        1 MOL     -0.195256
     12 C6          3.6440    1.0160   -1.0930 c         1 MOL      0.625175
     13 O3          2.9960    0.7660   -0.0490 o         1 MOL     -0.592643
     14 O4          4.8570    1.0020   -1.2910 o         1 MOL     -0.592643
     15 H4          1.5030    2.4760   -4.2810 hn        1 MOL      0.360519
     16 H5          1.0360    2.1280   -1.5370 h1        1 MOL     -0.094606
     17 H6          3.5830    1.6140   -3.0980 hc        1 MOL      0.031795
     18 H7          2.3140    0.3920   -2.6830 hc        1 MOL      0.031795
     19 N2          2.2780    3.7490   -0.1940 n         1 MOL     -0.042165
     20 C7          2.6290    4.8320    0.7040 c3        1 MOL      0.043838
     21 C8          3.8100    4.4150    1.6100 c         1 MOL      0.447135
     22 O5          4.3400    5.2640    2.2920 o         1 MOL     -0.556056
     23 C9          1.3370    5.2400    1.4220 c3        1 MOL      0.071283
     24 C10         0.0990    5.6000    0.5450 c3        1 MOL     -0.014369
     25 C11         0.4470    6.6480   -0.5620 c3        1 MOL     -0.020500
     26 C12        -0.7110    7.3270   -1.2860 c3        1 MOL      0.116124
     27 N3         -0.2530    8.2210   -2.3070 n4        1 MOL     -0.330746
     28 H8          1.5440    3.1220    0.0930 hn        1 MOL      0.182698
     29 H9          2.9290    5.6940    0.0980 h1        1 MOL     -0.002571
     30 H10         1.5420    6.0660    2.1060 hc        1 MOL      0.007929
     31 H11         0.9270    4.4520    2.0610 hc        1 MOL      0.007929
     32 H12        -0.6740    6.0460    1.1780 hc        1 MOL      0.018363
     33 H13        -0.3390    4.6700    0.1870 hc        1 MOL      0.018363
     34 H14         1.1830    6.1870   -1.2260 hc        1 MOL     -0.000467
     35 H15         0.8910    7.4650    0.0090 hc        1 MOL     -0.000467
     36 H16        -1.3080    7.8730   -0.5610 hx        1 MOL      0.048412
     37 H17        -1.3140    6.5380   -1.7470 hx        1 MOL      0.048412
     38 H18         0.1180    9.0350   -1.8410 hn        1 MOL      0.312945
     39 H19         0.4950    7.9150   -2.9030 hn        1 MOL      0.312945
     40 H20        -0.9580    8.5300   -2.9560 hn        1 MOL      0.312945
     41 N4          4.1670    3.1540    1.7130 n         1 MOL     -0.226529
     42 C13         5.1250    2.7220    2.6770 c3        1 MOL      0.093101
     43 C14         6.4310    2.2860    2.0090 c         1 MOL      0.335688
     44 O6          7.4620    2.3760    2.6900 o         1 MOL     -0.556261
     45 C15         4.5010    1.5700    3.5730 c3        1 MOL     -0.019662
     46 C16         3.0690    1.7950    3.8540 c         1 MOL      0.563863
     47 O7          2.2590    1.1000    3.2740 o         1 MOL     -0.618113
     48 O8          2.8100    2.7780    4.6260 o         1 MOL     -0.618113
     49 H21         3.6440    2.5320    1.1060 hn        1 MOL      0.064634
     50 H22         5.3790    3.5470    3.3390 h1        1 MOL      0.091636
     51 H23         5.2030    1.5030    4.4010 hc        1 MOL      0.013043
     52 H24         4.6940    0.6520    3.0100 hc        1 MOL      0.013043
     53 N5          6.4640    1.6880    0.8430 n         1 MOL     -0.059462
     54 C17         7.6670    1.1790    0.1770 c3        1 MOL     -0.251460
     55 C18         7.7940   -0.3240    0.5740 c         1 MOL      0.566326
     56 O9          8.8730   -0.8420    0.2810 o         1 MOL     -0.597737
     57 H25         5.6000    1.5620    0.3400 hn        1 MOL      0.057562
     58 H26         8.5620    1.6990    0.5290 h1        1 MOL      0.136641
     59 H27         7.6300    1.2730   -0.9080 h1        1 MOL      0.136641
     60 N6          6.8450   -0.9620    1.2270 n         1 MOL     -0.244417
     61 C19         6.9310   -2.3570    1.7510 c3        1 MOL     -0.025572
     62 C20         6.9790   -3.4660    0.6070 c         1 MOL      0.379012
     63 O10         7.1470   -4.7000    0.8700 o         1 MOL     -0.519180
     64 C21         5.7620   -2.6620    2.7360 c3        1 MOL     -0.110871
     65 C22         4.3380   -2.1920    2.1480 c         1 MOL      0.790522
     66 O11         3.9190   -2.6710    1.0590 o         1 MOL     -0.796269
     67 O12         3.5840   -1.4040    2.7930 o         1 MOL     -0.796269
     68 H28         6.0900   -0.3700    1.5440 hn        1 MOL      0.177245
     69 H29         7.8690   -2.4500    2.3130 h1        1 MOL      0.112558
     70 H30         5.9100   -2.2020    3.7110 hc        1 MOL      0.051383
     71 H31         5.7640   -3.7540    2.8560 hc        1 MOL      0.051383
     72 N7          6.7620   -3.0080   -0.6230 n         1 MOL     -0.201552
     73 C23         6.5830   -3.7200   -1.8710 c3        1 MOL     -0.145862
     74 C24         5.1440   -3.9710   -2.3310 c         1 MOL      0.450154
     75 O13         4.9870   -4.7690   -3.2780 o         1 MOL     -0.558347
     76 H32         6.6420   -1.9980   -0.6860 hn        1 MOL      0.233479
     77 H33         7.0260   -4.7090   -1.7790 h1        1 MOL      0.117320
     78 H34         7.1020   -3.2170   -2.6930 h1        1 MOL      0.117320
     79 N8          4.1190   -3.6400   -1.5730 n         1 MOL     -0.139584
     80 C25         2.7580   -4.2030   -1.7400 c3        1 MOL     -0.422058
     81 C26         1.6080   -3.1580   -1.6440 c         1 MOL      0.868279
     82 O14         1.5760   -2.3250   -0.7640 o         1 MOL     -0.667594
     83 C27         2.4950   -5.3210   -0.7120 c3        1 MOL      0.495273
     84 C28         3.5000   -6.3930   -0.7690 c3        1 MOL     -0.529917
     85 O15         2.7110   -4.9430    0.6550 oh        1 MOL     -0.682820
     86 H35         4.2560   -3.0380   -0.7820 hn        1 MOL      0.175778
     87 H36         2.6320   -4.5990   -2.7450 h1        1 MOL      0.152122
     88 H37         1.4960   -5.7520   -0.7960 h1        1 MOL      0.013664
     89 H38         3.2830   -4.1660    0.7200 ho        1 MOL      0.494250
     90 H39         4.5220   -6.0760   -0.5380 hc        1 MOL      0.142410
     91 H40         3.1800   -7.2300   -0.1600 hc        1 MOL      0.142410
     92 H41         3.5430   -6.7100   -1.8130 hc        1 MOL      0.142410
     93 N9          0.5630   -3.2920   -2.5140 n         1 MOL     -0.839417
     94 C29        -0.5510   -2.3920   -2.4980 c3        1 MOL      0.286208
     95 C30        -1.7210   -3.0760   -1.8260 c         1 MOL      0.450357
     96 O16        -2.0560   -4.1790   -2.2300 o         1 MOL     -0.562308
     97 C31        -1.0090   -1.8220   -3.8610 c3        1 MOL      0.440944
     98 C32         0.0790   -1.3220   -4.8500 c3        1 MOL      0.158469
     99 C33        -1.8850   -0.5860   -3.5890 c3        1 MOL     -0.902224
    100 C34        -0.4120   -0.9900   -6.2380 c3        1 MOL     -0.148294
    101 H42         0.7130   -3.9630   -3.2600 hn        1 MOL      0.358659
    102 H43        -0.3070   -1.4810   -1.9440 h1        1 MOL     -0.001044
    103 H44        -1.5010   -2.7070   -4.2700 hc        1 MOL     -0.080317
    104 H45         0.7490   -2.1690   -5.0130 hc        1 MOL     -0.051846
    105 H46         0.6340   -0.4870   -4.4120 hc        1 MOL     -0.051846
    106 H47        -1.4060    0.2590   -3.0910 hc        1 MOL      0.173242
    107 H48        -2.3360   -0.1780   -4.4970 hc        1 MOL      0.173242
    108 H49        -2.7750   -0.8850   -3.0280 hc        1 MOL      0.173242
    109 H50        -1.1400   -0.1810   -6.2950 hc        1 MOL      0.029198
    110 H51         0.4200   -0.8290   -6.9300 hc        1 MOL      0.029198
    111 H52        -1.0340   -1.8350   -6.5340 hc        1 MOL      0.029198
    112 N10        -2.3530   -2.4100   -0.8940 n         1 MOL     -0.034358
    113 C35        -3.5450   -2.9090   -0.2290 c3        1 MOL     -0.008899
    114 C36        -4.8520   -2.3600   -0.8020 c         1 MOL      0.315287
    115 O17        -4.8610   -1.4750   -1.6300 o         1 MOL     -0.353637
    116 C37        -3.4630   -2.5340    1.2540 c3        1 MOL      0.321017
    117 C38        -2.2350   -3.0650    1.9280 c3        1 MOL     -0.660561
    118 O18        -3.5220   -1.1300    1.4170 oh        1 MOL     -0.623778
    119 H53        -1.9980   -1.5350   -0.5520 hn        1 MOL      0.007518
    120 H54        -3.6790   -3.9840   -0.3240 h1        1 MOL      0.045462
    121 H55        -4.3500   -2.9490    1.7410 h1        1 MOL      0.001983
    122 H56        -2.6650   -0.7470    1.2090 ho        1 MOL      0.420841
    123 H57        -1.3440   -2.5660    1.5380 hc        1 MOL      0.173645
    124 H58        -2.3410   -2.8280    2.9840 hc        1 MOL      0.173645
    125 H59        -2.2710   -4.1550    1.8410 hc        1 MOL      0.173645
    126 N11        -5.9530   -2.8830   -0.2420 n         1 MOL     -0.256964
    127 C39        -7.3000   -2.3380   -0.4930 c3        1 MOL     -0.106726
    128 C40        -7.3770   -0.8710   -0.1450 c         1 MOL      0.393338
    129 O19        -8.0460   -0.1340   -0.9160 o         1 MOL     -0.508385
    130 C41        -8.4210   -3.2180    0.1490 c3        1 MOL      0.240279
    131 C42        -8.4920   -4.5690   -0.6250 c3        1 MOL     -0.351468
    132 O20        -8.1360   -3.5110    1.4630 oh        1 MOL     -0.684613
    133 H60        -5.8750   -3.6900    0.3550 hn        1 MOL      0.264235
    134 H61        -7.5260   -2.3200   -1.5650 h1        1 MOL      0.129087
    135 H62        -9.3890   -2.7190    0.0620 h1        1 MOL      0.056156
    136 H63        -8.7040   -4.2320    1.7240 ho        1 MOL      0.448111
    137 H64        -8.6760   -4.4590   -1.6930 hc        1 MOL      0.101114
    138 H65        -7.4800   -4.9520   -0.5680 hc        1 MOL      0.101114
    139 H66        -9.1370   -5.2650   -0.0880 hc        1 MOL      0.101114
    140 N12        -6.7230   -0.4140    0.8750 n         1 MOL     -0.268825
    141 C43        -6.8940    0.9270    1.2990 c3        1 MOL     -0.056958
    142 C44        -6.1630    1.8750    0.3690 c         1 MOL      0.308581
    143 O21        -6.6360    2.9460    0.0200 o         1 MOL     -0.486502
    144 C45        -6.5300    1.1790    2.7700 c3        1 MOL     -0.125737
    145 C46        -7.3810    0.2700    3.6870 c3        1 MOL      0.139357
    146 C47        -6.9740    0.5500    5.1150 c3        1 MOL     -0.013782
    147 C48        -7.6660   -0.4980    5.9590 c3        1 MOL     -0.060568
    148 N13        -9.1840   -0.4370    5.9010 n4        1 MOL     -0.247385
    149 H67        -6.2290   -1.0740    1.4580 hn        1 MOL      0.314426
    150 H68        -7.9540    1.1730    1.1920 h1        1 MOL      0.110729
    151 H69        -6.7110    2.2190    3.0420 hc        1 MOL      0.056057
    152 H70        -5.4840    0.9450    2.9630 hc        1 MOL      0.056057
    153 H71        -7.1420   -0.7820    3.4840 hc        1 MOL     -0.028227
    154 H72        -8.4280    0.4800    3.4970 hc        1 MOL     -0.028227
    155 H73        -7.3310    1.5650    5.3200 hc        1 MOL      0.052114
    156 H74        -5.9060    0.4650    5.3220 hc        1 MOL      0.052114
    157 H75        -7.2890   -0.3780    6.9710 hx        1 MOL      0.104808
    158 H76        -7.3540   -1.4480    5.5330 hx        1 MOL      0.104808
    159 H77        -9.5890   -0.7450    5.0230 hn        1 MOL      0.256479
    160 H78        -9.5670   -1.0020    6.6410 hn        1 MOL      0.256479
    161 H79        -9.5910    0.4870    5.9590 hn        1 MOL      0.256479
    162 N14        -5.0410    1.3710   -0.1430 n         1 MOL      0.078698
    163 C49        -4.1580    2.1270   -0.9330 c3        1 MOL     -0.176437
    164 C50        -4.7370    2.2530   -2.3760 c         1 MOL      0.422730
    165 O22        -4.5480    3.3060   -2.9780 o         1 MOL     -0.571029
    166 C51        -2.7520    1.4720   -0.9060 c3        1 MOL     -0.048623
    167 C52        -2.0050    1.8720    0.3940 c3        1 MOL      0.124628
    168 C53        -0.7570    1.0530    0.5350 c         1 MOL      0.642640
    169 O23         0.2500    1.6170    0.9490 o         1 MOL     -0.691252
    170 O24        -0.8220   -0.1900    0.5180 o         1 MOL     -0.691252
    171 H80        -4.7980    0.4070    0.0300 hn        1 MOL      0.085437
    172 H81        -4.0970    3.1420   -0.5560 h1        1 MOL      0.100539
    173 H82        -2.2100    1.8250   -1.7860 hc        1 MOL      0.102618
    174 H83        -2.8850    0.4020   -0.7940 hc        1 MOL      0.102618
    175 H84        -2.7320    1.6630    1.1870 hc        1 MOL     -0.058736
    176 H85        -1.7630    2.9280    0.4110 hc        1 MOL     -0.058736
    177 N15        -5.4630    1.3320   -2.9510 n         1 MOL     -0.080116
    178 C54        -6.3350    1.4410   -4.1930 c3        1 MOL     -0.276727
    179 H86        -5.9740    0.7460   -4.9520 h1        1 MOL      0.115871
    180 H87        -7.3660    1.1950   -3.9380 h1        1 MOL      0.115871
    181 H88        -6.2890    2.4580   -4.5820 h1        1 MOL      0.115871
    182 H89        -5.4840    0.4460   -2.4570 hn        1 MOL      0.137627
    183 Ca1         1.5090   -0.7940    1.4620 Ca        1 MOL      1.726549
    184 O25         1.0850   -3.2640    1.9460 oh        1 MOL     -0.788964
    185 H90         1.2950   -4.0250    1.3980 ho        1 MOL      0.384889
    186 H91         0.9020   -3.6340    2.8070 ho        1 MOL      0.384889
    187 O26        -0.1010   -0.8200    3.7210 oh        1 MOL     -0.788964
    188 H92        -0.3160   -1.4560    4.4020 ho        1 MOL      0.384889
    189 H93         0.4140   -0.1530    4.1720 ho        1 MOL      0.384889
@<TRIPOS>BOND
     1    1    2 1   
     2    1    4 1   
     3    1    5 1   
     4    1    6 1   
     5    2    3 2   
     6    2    7 1   
     7    7    8 1   
     8    7   15 1   
     9    8    9 1   
    10    8   11 1   
    11    8   16 1   
    12    9   10 2   
    13    9   19 1   
    14   11   12 1   
    15   11   17 1   
    16   11   18 1   
    17   12   13 1   
    18   12   14 1   
    19   19   20 1   
    20   19   28 1   
    21   20   21 1   
    22   20   23 1   
    23   20   29 1   
    24   21   22 2   
    25   21   41 1   
    26   23   24 1   
    27   23   30 1   
    28   23   31 1   
    29   24   25 1   
    30   24   32 1   
    31   24   33 1   
    32   25   26 1   
    33   25   34 1   
    34   25   35 1   
    35   26   27 1   
    36   26   36 1   
    37   26   37 1   
    38   27   38 1   
    39   27   39 1   
    40   27   40 1   
    41   41   42 1   
    42   41   49 1   
    43   42   43 1   
    44   42   45 1   
    45   42   50 1   
    46   43   44 2   
    47   43   53 1   
    48   45   46 1   
    49   45   51 1   
    50   45   52 1   
    51   46   47 1   
    52   46   48 1   
    53   53   54 1   
    54   53   57 1   
    55   54   55 1   
    56   54   58 1   
    57   54   59 1   
    58   55   56 2   
    59   55   60 1   
    60   60   61 1   
    61   60   68 1   
    62   61   62 1   
    63   61   64 1   
    64   61   69 1   
    65   62   63 2   
    66   62   72 1   
    67   64   65 1   
    68   64   70 1   
    69   64   71 1   
    70   65   66 1   
    71   65   67 1   
    72   72   73 1   
    73   72   76 1   
    74   73   74 1   
    75   73   77 1   
    76   73   78 1   
    77   74   75 2   
    78   74   79 1   
    79   79   80 1   
    80   79   86 1   
    81   80   81 1   
    82   80   83 1   
    83   80   87 1   
    84   81   82 2   
    85   81   93 1   
    86   83   84 1   
    87   83   85 1   
    88   83   88 1   
    89   84   90 1   
    90   84   91 1   
    91   84   92 1   
    92   85   89 1   
    93   93   94 1   
    94   93  101 1   
    95   94   95 1   
    96   94   97 1   
    97   94  102 1   
    98   95   96 2   
    99   95  112 1   
   100   97   98 1   
   101   97   99 1   
   102   97  103 1   
   103   98  100 1   
   104   98  104 1   
   105   98  105 1   
   106   99  106 1   
   107   99  107 1   
   108   99  108 1   
   109  100  109 1   
   110  100  110 1   
   111  100  111 1   
   112  112  113 1   
   113  112  119 1   
   114  113  114 1   
   115  113  116 1   
   116  113  120 1   
   117  114  115 2   
   118  114  126 1   
   119  116  117 1   
   120  116  118 1   
   121  116  121 1   
   122  117  123 1   
   123  117  124 1   
   124  117  125 1   
   125  118  122 1   
   126  126  127 1   
   127  126  133 1   
   128  127  128 1   
   129  127  130 1   
   130  127  134 1   
   131  128  129 2   
   132  128  140 1   
   133  130  131 1   
   134  130  132 1   
   135  130  135 1   
   136  131  137 1   
   137  131  138 1   
   138  131  139 1   
   139  132  136 1   
   140  140  141 1   
   141  140  149 1   
   142  141  142 1   
   143  141  144 1   
   144  141  150 1   
   145  142  143 2   
   146  142  162 1   
   147  144  145 1   
   148  144  151 1   
   149  144  152 1   
   150  145  146 1   
   151  145  153 1   
   152  145  154 1   
   153  146  147 1   
   154  146  155 1   
   155  146  156 1   
   156  147  148 1   
   157  147  157 1   
   158  147  158 1   
   159  148  159 1   
   160  148  160 1   
   161  148  161 1   
   162  162  163 1   
   163  162  171 1   
   164  163  164 1   
   165  163  166 1   
   166  163  172 1   
   167  164  165 2   
   168  164  177 1   
   169  166  167 1   
   170  166  173 1   
   171  166  174 1   
   172  167  168 1   
   173  167  175 1   
   174  167  176 1   
   175  168  169 1   
   176  168  170 1   
   177  177  178 1   
   178  177  182 1   
   179  178  179 1   
   180  178  180 1   
   181  178  181 1   
   182  184  185 1   
   183  184  186 1   
   184  187  188 1   
   185  187  189 1   
@<TRIPOS>SUBSTRUCTURE
     1 MOL         1 TEMP              0 ****  ****    0 ROOT
