@<TRIPOS>MOLECULE
MOL
  175   173     1     0     0
SMALL
resp


@<TRIPOS>ATOM
      1 C1          0.4710    4.4120    5.2960 c3        1 MOL     -0.406433
      2 C2          0.0220    4.1950    3.8340 c         1 MOL      0.756943
      3 O1          0.8850    4.0220    2.9930 o         1 MOL     -0.566973
      4 H1          1.3840    3.8470    5.4830 hc        1 MOL      0.094171
      5 H2          0.6600    5.4720    5.4650 hc        1 MOL      0.094171
      6 H3         -0.3130    4.0700    5.9720 hc        1 MOL      0.094171
      7 N1         -1.2960    4.1360    3.6570 n         1 MOL     -0.724329
      8 C3         -1.9920    3.7850    2.4520 c3        1 MOL      0.282415
      9 C4         -2.1080    4.9160    1.4200 c         1 MOL      0.604407
     10 O2         -2.5160    6.0250    1.8420 o         1 MOL     -0.578218
     11 C5         -3.3740    3.1350    2.8590 c3        1 MOL     -0.368389
     12 C6         -4.2040    2.5530    1.7090 c         1 MOL      0.801977
     13 O3         -5.4320    2.4870    1.8020 o         1 MOL     -0.698000
     14 O4         -3.6430    2.0990    0.6980 o         1 MOL     -0.698000
     15 H4         -1.8240    4.3600    4.4900 hn        1 MOL      0.349957
     16 H5         -1.4720    2.9700    1.9550 h1        1 MOL      0.066828
     17 H6         -3.8860    3.9690    3.3370 hc        1 MOL      0.067094
     18 H7         -3.2240    2.3320    3.5750 hc        1 MOL      0.067094
     19 N2         -1.9040    4.6060    0.1370 n         1 MOL     -0.648112
     20 C7         -2.1920    5.5490   -0.8370 c3        1 MOL      0.403220
     21 C8         -3.1470    5.0850   -1.9700 c         1 MOL      0.429873
     22 O5         -3.4440    5.9760   -2.8240 o         1 MOL     -0.589113
     23 C9         -0.8700    6.1280   -1.3530 c3        1 MOL     -0.237974
     24 H8         -1.4930    3.7460   -0.1850 hn        1 MOL      0.305099
     25 H9         -2.7500    6.3820   -0.4090 h1        1 MOL     -0.005742
     26 H10        -0.2200    6.4560   -0.5490 hc        1 MOL      0.050222
     27 H11        -0.3230    5.5400   -2.0920 hc        1 MOL      0.050222
     28 H12        -1.0810    7.0480   -1.8960 hc        1 MOL      0.050222
     29 N3         -3.6620    3.8570   -1.9030 n         1 MOL     -0.286521
     30 C10        -4.7720    3.2970   -2.7960 c3        1 MOL      0.006359
     31 C11        -5.9530    2.4070   -2.2570 c         1 MOL      0.352888
     32 O6         -6.7750    1.9460   -3.0730 o         1 MOL     -0.529624
     33 C12        -4.1620    2.4840   -3.9560 c3        1 MOL     -0.246190
     34 C13        -3.3390    1.2060   -3.5630 c         1 MOL      0.771026
     35 O7         -3.4680    0.8160   -2.3710 o         1 MOL     -0.703582
     36 O8         -2.3950    0.8320   -4.2960 o         1 MOL     -0.703582
     37 H13        -3.4240    3.2340   -1.1470 hn        1 MOL      0.187611
     38 H14        -5.3040    4.1340   -3.2450 h1        1 MOL      0.094052
     39 H15        -3.4150    3.1660   -4.3790 hc        1 MOL      0.058209
     40 H16        -4.8870    2.1980   -4.7210 hc        1 MOL      0.058209
     41 N4         -6.0300    2.0220   -0.9800 n         1 MOL     -0.140719
     42 C14        -7.1040    1.2730   -0.4690 c3        1 MOL     -0.265242
     43 C15        -7.1840   -0.2130   -0.8530 c         1 MOL      0.500694
     44 O9         -8.1480   -0.8550   -0.4400 o         1 MOL     -0.620508
     45 H17        -5.4250    2.4310   -0.2790 hn        1 MOL      0.199749
     46 H18        -7.9570    1.7420   -0.9650 h1        1 MOL      0.127304
     47 H19        -7.2820    1.4340    0.5880 h1        1 MOL      0.127304
     48 N5         -6.2580   -0.7930   -1.6110 n         1 MOL     -0.093823
     49 C16        -6.2740   -2.2050   -2.0130 c3        1 MOL     -0.052909
     50 C17        -6.2900   -3.2510   -0.8260 c         1 MOL      0.404645
     51 O10        -6.2060   -4.4170   -1.1700 o         1 MOL     -0.515808
     52 C18        -5.0770   -2.4820   -2.9540 c3        1 MOL     -0.181643
     53 C19        -3.7590   -2.3530   -2.3520 c         1 MOL      0.538842
     54 N6         -2.6780   -2.7290   -3.0120 n         1 MOL     -0.584256
     55 O11        -3.5820   -1.8770   -1.2130 o         1 MOL     -0.538938
     56 H20        -5.3100   -0.4390   -1.5840 hn        1 MOL      0.065523
     57 H21        -7.2170   -2.2660   -2.5500 h1        1 MOL      0.092589
     58 H22        -5.1270   -1.8670   -3.8620 hc        1 MOL      0.079807
     59 H23        -5.1750   -3.4940   -3.3420 hc        1 MOL      0.079807
     60 H24        -2.7300   -3.3860   -3.7760 hn        1 MOL      0.311192
     61 H25        -1.8010   -2.5490   -2.5410 hn        1 MOL      0.311192
     62 N7         -6.2760   -2.7760    0.4170 n         1 MOL     -0.135369
     63 C20        -6.2160   -3.6360    1.5750 c3        1 MOL     -0.361989
     64 C21        -4.8940   -4.3090    2.0230 c         1 MOL      0.568970
     65 O12        -4.8620   -4.9310    3.0570 o         1 MOL     -0.583153
     66 H26        -6.4700   -1.7830    0.5090 hn        1 MOL      0.264775
     67 H27        -6.8650   -4.5160    1.5260 h1        1 MOL      0.131106
     68 H28        -6.6180   -3.0100    2.3670 h1        1 MOL      0.131106
     69 N8         -3.8190   -4.1480    1.2440 n         1 MOL     -0.192236
     70 C22        -2.4180   -4.5630    1.5800 c3        1 MOL     -0.195016
     71 C23        -1.4730   -3.4000    1.6180 c         1 MOL      0.658872
     72 O13        -1.6860   -2.3970    0.9290 o         1 MOL     -0.601884
     73 C24        -1.8340   -5.4630    0.5490 c3        1 MOL      0.487519
     74 C25        -2.4270   -6.8500    0.6590 c3        1 MOL     -0.313895
     75 O14        -1.9080   -4.9950   -0.7830 oh        1 MOL     -0.688289
     76 H29        -3.9450   -3.5880    0.4140 hn        1 MOL      0.244203
     77 H30        -2.3910   -5.0900    2.5390 h1        1 MOL      0.079329
     78 H31        -0.7500   -5.5060    0.6780 h1        1 MOL     -0.016259
     79 H32        -1.3120   -4.2780   -1.0160 ho        1 MOL      0.436677
     80 H33        -1.8180   -7.5130    1.2690 hc        1 MOL      0.070747
     81 H34        -3.4770   -6.8570    0.9590 hc        1 MOL      0.070747
     82 H35        -2.3980   -7.3680   -0.3050 hc        1 MOL      0.070747
     83 N9         -0.3890   -3.5720    2.3980 n         1 MOL     -0.645315
     84 C26         0.7890   -2.7190    2.1760 c3        1 MOL      0.178903
     85 C27         1.4900   -3.0990    0.8790 c         1 MOL      0.234563
     86 O15         1.7280   -4.3110    0.5940 o         1 MOL     -0.539097
     87 C28         1.7010   -2.6150    3.4110 c3        1 MOL      0.104962
     88 C29         1.1550   -1.5890    4.4730 c3        1 MOL      0.114782
     89 C30         3.1720   -2.3580    3.1010 c3        1 MOL     -0.076283
     90 C31         1.7980   -1.6930    5.8390 c3        1 MOL     -0.179300
     91 H36        -0.2750   -4.4580    2.8540 hn        1 MOL      0.311039
     92 H37         0.4040   -1.7090    2.0360 h1        1 MOL      0.020051
     93 H38         1.7600   -3.5990    3.8640 hc        1 MOL      0.003378
     94 H39         0.0810   -1.7280    4.5810 hc        1 MOL     -0.025071
     95 H40         1.2750   -0.5790    4.0660 hc        1 MOL     -0.025071
     96 H41         3.6680   -2.6870    4.0110 hc        1 MOL      0.003914
     97 H42         3.5650   -2.9610    2.2860 hc        1 MOL      0.003914
     98 H43         3.3680   -1.3210    2.8190 hc        1 MOL      0.003914
     99 H44         1.6470   -2.6770    6.2870 hc        1 MOL      0.032718
    100 H45         2.8350   -1.4770    5.6050 hc        1 MOL      0.032718
    101 H46         1.4180   -0.8820    6.4690 hc        1 MOL      0.032718
    102 N10         1.7390   -2.1350    0.0820 n         1 MOL     -0.097935
    103 C32         2.5030   -2.2270   -1.1960 c3        1 MOL      0.085701
    104 C33         3.8330   -1.5050   -1.0860 c         1 MOL      0.662534
    105 O16         4.0800   -0.7160   -0.2120 o         1 MOL     -0.464170
    106 C34         1.7220   -1.5300   -2.2940 c3        1 MOL     -0.506445
    107 C35         0.2530   -1.8870   -2.1440 c         1 MOL      0.977110
    108 O17        -0.6270   -1.0080   -1.9840 o         1 MOL     -0.737062
    109 O18        -0.0510   -3.0890   -2.3490 o         1 MOL     -0.737062
    110 H47         1.3710   -1.2140    0.3070 hn        1 MOL      0.187300
    111 H48         2.7040   -3.2860   -1.3550 h1        1 MOL      0.064384
    112 H49         2.0730   -1.8760   -3.2610 hc        1 MOL      0.139574
    113 H50         1.8770   -0.4590   -2.1500 hc        1 MOL      0.139574
    114 N11         4.7400   -1.8090   -2.0310 n         1 MOL     -0.916684
    115 C36         6.1580   -1.5360   -1.6960 c3        1 MOL      0.523557
    116 C37         6.6040   -0.0430   -1.2880 c         1 MOL      0.224073
    117 O19         7.2590    0.0950   -0.2650 o         1 MOL     -0.453510
    118 C38         7.1230   -2.1920   -2.6500 c3        1 MOL     -0.154693
    119 C39         8.5800   -2.0700   -2.3080 ca        1 MOL      0.051166
    120 C40         9.0800   -2.6710   -1.1550 ca        1 MOL     -0.141031
    121 C41         9.4140   -1.2000   -2.9250 ca        1 MOL     -0.141031
    122 C42        10.4340   -2.6320   -0.7220 ca        1 MOL     -0.153191
    123 C43        10.7300   -0.9030   -2.4210 ca        1 MOL     -0.153191
    124 C44        11.2380   -1.6770   -1.3530 ca        1 MOL     -0.036165
    125 H51         4.6350   -2.6270   -2.6220 hn        1 MOL      0.399731
    126 H52         6.4190   -2.1330   -0.8270 h1        1 MOL      0.006874
    127 H53         6.9400   -1.7130   -3.6160 hc        1 MOL      0.035534
    128 H54         6.8930   -3.2570   -2.6680 hc        1 MOL      0.035534
    129 H55         8.3780   -3.2830   -0.6080 ha        1 MOL      0.108762
    130 H56         9.0470   -0.6850   -3.7920 ha        1 MOL      0.108762
    131 H57        10.7050   -3.2160    0.1440 ha        1 MOL      0.123481
    132 H58        11.4040   -0.2080   -2.8920 ha        1 MOL      0.123481
    133 H59        12.2890   -1.5830   -1.1520 ha        1 MOL      0.076584
    134 N12         6.0350    1.0770   -1.9120 n         1 MOL      0.050835
    135 C45         6.2350    2.4400   -1.4620 c3        1 MOL     -0.005055
    136 C46         5.7010    2.7990   -0.0470 c         1 MOL      0.284723
    137 O20         6.1340    3.7880    0.5060 o         1 MOL     -0.508811
    138 C47         5.5100    3.3570   -2.5660 c3        1 MOL     -0.010871
    139 C48         5.4310    2.4960   -3.7890 c3        1 MOL     -0.096638
    140 C49         5.3760    1.0150   -3.2270 c3        1 MOL     -0.004661
    141 H60         7.3130    2.6140   -1.5070 h1        1 MOL      0.034746
    142 H61         4.5600    3.5870   -2.0780 hc        1 MOL      0.040950
    143 H62         6.0050    4.3220   -2.6920 hc        1 MOL      0.040950
    144 H63         4.5760    2.6890   -4.4280 hc        1 MOL      0.038558
    145 H64         6.3740    2.5350   -4.3320 hc        1 MOL      0.038558
    146 H65         4.3510    0.6540   -3.1320 h1        1 MOL      0.030372
    147 H66         6.0690    0.4250   -3.8390 h1        1 MOL      0.030372
    148 N13         4.7280    2.0580    0.4120 n         1 MOL      0.016808
    149 C50         4.0720    2.1840    1.7040 c3        1 MOL     -0.206628
    150 C51         4.9170    1.5810    2.8150 c         1 MOL      0.500138
    151 O21         5.0360    2.1550    3.9100 o         1 MOL     -0.552507
    152 C52         2.6450    1.6400    1.7600 c3        1 MOL     -0.009990
    153 C53         1.8070    2.1550    0.5800 c3        1 MOL     -0.003738
    154 C54         0.4300    1.5250    0.4670 c         1 MOL      0.562099
    155 O22         0.2030    0.4180    0.9620 o         1 MOL     -0.697190
    156 O23        -0.4640    1.9690   -0.2780 o         1 MOL     -0.697190
    157 H67         4.5440    1.2160   -0.1050 hn        1 MOL      0.063425
    158 H68         3.9400    3.2430    1.9210 h1        1 MOL      0.128107
    159 H69         2.1610    1.9580    2.6860 hc        1 MOL      0.046924
    160 H70         2.6400    0.5540    1.7020 hc        1 MOL      0.046924
    161 H71         2.3070    1.9810   -0.3680 hc        1 MOL      0.036221
    162 H72         1.7330    3.2460    0.5100 hc        1 MOL      0.036221
    163 N14         5.6360    0.4910    2.4760 n         1 MOL     -0.078753
    164 C55         6.7450   -0.0000    3.3450 c3        1 MOL     -0.314884
    165 H73         7.1220   -0.9450    2.9520 h1        1 MOL      0.111173
    166 H74         7.5490    0.7350    3.3580 h1        1 MOL      0.111173
    167 H75         6.3730   -0.1510    4.3580 h1        1 MOL      0.111173
    168 H76         5.4450    0.0470    1.6010 hn        1 MOL      0.121306
    169 Ca1        -2.2240    0.0620   -0.1260 Ca        1 MOL      1.708035
    170 O24        -4.1960   -0.7930    1.6160 oh        1 MOL     -0.828984
    171 H77        -5.0940   -0.6350    1.9080 ho        1 MOL      0.402235
    172 H78        -3.6420   -0.5140    2.3460 ho        1 MOL      0.402235
    173 O25        -1.7370    0.1300    2.7870 oh        1 MOL     -0.828984
    174 H79        -0.8080    0.0170    2.5880 ho        1 MOL      0.402235
    175 H80        -1.7580    0.3270    3.7200 ho        1 MOL      0.402235
@<TRIPOS>BOND
     1    1    2 1   
     2    1    4 1   
     3    1    5 1   
     4    1    6 1   
     5    2    3 2   
     6    2    7 1   
     7    7    8 1   
     8    7   15 1   
     9    8    9 1   
    10    8   11 1   
    11    8   16 1   
    12    9   10 2   
    13    9   19 1   
    14   11   12 1   
    15   11   17 1   
    16   11   18 1   
    17   12   13 1   
    18   12   14 1   
    19   19   20 1   
    20   19   24 1   
    21   20   21 1   
    22   20   23 1   
    23   20   25 1   
    24   21   22 2   
    25   21   29 1   
    26   23   26 1   
    27   23   27 1   
    28   23   28 1   
    29   29   30 1   
    30   29   37 1   
    31   30   31 1   
    32   30   33 1   
    33   30   38 1   
    34   31   32 2   
    35   31   41 1   
    36   33   34 1   
    37   33   39 1   
    38   33   40 1   
    39   34   35 1   
    40   34   36 1   
    41   41   42 1   
    42   41   45 1   
    43   42   43 1   
    44   42   46 1   
    45   42   47 1   
    46   43   44 2   
    47   43   48 1   
    48   48   49 1   
    49   48   56 1   
    50   49   50 1   
    51   49   52 1   
    52   49   57 1   
    53   50   51 2   
    54   50   62 1   
    55   52   53 1   
    56   52   58 1   
    57   52   59 1   
    58   53   54 1   
    59   53   55 2   
    60   54   60 1   
    61   54   61 1   
    62   62   63 1   
    63   62   66 1   
    64   63   64 1   
    65   63   67 1   
    66   63   68 1   
    67   64   65 2   
    68   64   69 1   
    69   69   70 1   
    70   69   76 1   
    71   70   71 1   
    72   70   73 1   
    73   70   77 1   
    74   71   72 2   
    75   71   83 1   
    76   73   74 1   
    77   73   75 1   
    78   73   78 1   
    79   74   80 1   
    80   74   81 1   
    81   74   82 1   
    82   75   79 1   
    83   83   84 1   
    84   83   91 1   
    85   84   85 1   
    86   84   87 1   
    87   84   92 1   
    88   85   86 2   
    89   85  102 1   
    90   87   88 1   
    91   87   89 1   
    92   87   93 1   
    93   88   90 1   
    94   88   94 1   
    95   88   95 1   
    96   89   96 1   
    97   89   97 1   
    98   89   98 1   
    99   90   99 1   
   100   90  100 1   
   101   90  101 1   
   102  102  103 1   
   103  102  110 1   
   104  103  104 1   
   105  103  106 1   
   106  103  111 1   
   107  104  105 2   
   108  104  114 1   
   109  106  107 1   
   110  106  112 1   
   111  106  113 1   
   112  107  108 1   
   113  107  109 1   
   114  114  115 1   
   115  114  125 1   
   116  115  116 1   
   117  115  118 1   
   118  115  126 1   
   119  116  117 2   
   120  116  134 1   
   121  118  119 1   
   122  118  127 1   
   123  118  128 1   
   124  119  120 ar  
   125  119  121 ar  
   126  120  122 ar  
   127  120  129 1   
   128  121  123 ar  
   129  121  130 1   
   130  122  124 ar  
   131  122  131 1   
   132  123  124 ar  
   133  123  132 1   
   134  124  133 1   
   135  134  135 1   
   136  134  140 1   
   137  135  136 1   
   138  135  138 1   
   139  135  141 1   
   140  136  137 2   
   141  136  148 1   
   142  138  139 1   
   143  138  142 1   
   144  138  143 1   
   145  139  140 1   
   146  139  144 1   
   147  139  145 1   
   148  140  146 1   
   149  140  147 1   
   150  148  149 1   
   151  148  157 1   
   152  149  150 1   
   153  149  152 1   
   154  149  158 1   
   155  150  151 2   
   156  150  163 1   
   157  152  153 1   
   158  152  159 1   
   159  152  160 1   
   160  153  154 1   
   161  153  161 1   
   162  153  162 1   
   163  154  155 1   
   164  154  156 1   
   165  163  164 1   
   166  163  168 1   
   167  164  165 1   
   168  164  166 1   
   169  164  167 1   
   170  170  171 1   
   171  170  172 1   
   172  173  174 1   
   173  173  175 1   
@<TRIPOS>SUBSTRUCTURE
     1 MOL         1 TEMP              0 ****  ****    0 ROOT
