@<TRIPOS>MOLECULE
MOL
  176   174     1     0     0
SMALL
resp


@<TRIPOS>ATOM
      1 C1         -1.0720    4.2290    6.4130 c3        1 MOL     -0.331205
      2 C2         -0.5910    3.8940    5.0190 c         1 MOL      0.720305
      3 O1          0.5670    4.1700    4.6520 o         1 MOL     -0.582581
      4 H1         -1.4660    5.2450    6.4270 hc        1 MOL      0.082593
      5 H2         -1.8580    3.5320    6.7050 hc        1 MOL      0.082593
      6 H3         -0.2400    4.1530    7.1140 hc        1 MOL      0.082593
      7 N1         -1.4390    3.1370    4.3440 n         1 MOL     -0.529387
      8 C3         -1.3200    2.6720    2.9600 c3        1 MOL     -0.144679
      9 C4         -1.0540    3.8710    2.0230 c         1 MOL      0.712573
     10 O2         -1.8290    4.8220    1.9810 o         1 MOL     -0.579852
     11 C5         -2.5790    1.8500    2.7200 c3        1 MOL     -0.081513
     12 C6         -2.6630    1.2080    1.3170 c         1 MOL      0.495205
     13 O3         -2.2710    1.9480    0.3930 o         1 MOL     -0.575182
     14 O4         -3.1030    0.0650    1.0730 o         1 MOL     -0.575182
     15 H4         -2.2890    2.9740    4.8600 hn        1 MOL      0.322266
     16 H5         -0.5720    1.9140    2.7270 h1        1 MOL      0.114085
     17 H6         -3.4930    2.3890    2.9590 hc        1 MOL      0.046452
     18 H7         -2.5790    1.0390    3.4500 hc        1 MOL      0.046452
     19 N2          0.0350    3.8110    1.2830 n         1 MOL     -0.512770
     20 C7          0.4830    4.9190    0.4190 c3        1 MOL      0.082104
     21 C8         -0.6170    5.4660   -0.5860 c         1 MOL      0.412859
     22 O5         -0.4850    6.6470   -1.0180 o         1 MOL     -0.567926
     23 C9          1.6740    4.4370   -0.3630 c3        1 MOL      0.149192
     24 C10         2.5630    5.6420   -0.8460 c3        1 MOL     -0.398707
     25 C11         3.8360    5.1710   -1.6380 c3        1 MOL      0.268679
     26 C12         4.7570    6.3740   -1.8270 c3        1 MOL      0.025040
     27 N3          5.9170    6.0010   -2.7790 n4        1 MOL     -0.317284
     28 H8          0.4580    2.8990    1.2410 hn        1 MOL      0.279623
     29 H9          0.7340    5.7510    1.0760 h1        1 MOL      0.083345
     30 H10         1.2010    3.9660   -1.2310 hc        1 MOL      0.012788
     31 H11         2.2730    3.7670    0.2640 hc        1 MOL      0.012788
     32 H12         2.9230    6.3010   -0.0520 hc        1 MOL      0.105147
     33 H13         1.9850    6.2680   -1.5220 hc        1 MOL      0.105147
     34 H14         3.5630    4.6970   -2.5780 hc        1 MOL     -0.040330
     35 H15         4.4610    4.3780   -1.2430 hc        1 MOL     -0.040330
     36 H16         5.0080    6.8710   -0.8900 hx        1 MOL      0.072956
     37 H17         4.1630    7.0420   -2.4370 hx        1 MOL      0.072956
     38 H18         6.7470    5.6510   -2.3160 hn        1 MOL      0.310552
     39 H19         5.6340    5.4610   -3.5910 hn        1 MOL      0.310552
     40 H20         6.2470    6.8070   -3.2860 hn        1 MOL      0.310552
     41 N4         -1.5840    4.6250   -0.9280 n         1 MOL     -0.066554
     42 C13        -2.6890    5.0020   -1.8230 c3        1 MOL     -0.001554
     43 C14        -4.0660    4.7190   -1.2340 c         1 MOL      0.404307
     44 O6         -4.9870    5.5480   -1.4260 o         1 MOL     -0.551719
     45 C15        -2.5920    4.2290   -3.1830 c3        1 MOL     -0.251811
     46 C16        -2.3080    2.6820   -2.9880 c         1 MOL      0.745959
     47 O7         -1.1360    2.2840   -3.1140 o         1 MOL     -0.745934
     48 O8         -3.1070    1.9200   -2.4380 o         1 MOL     -0.745934
     49 H21        -1.4810    3.6680   -0.6260 hn        1 MOL      0.092304
     50 H22        -2.7800    6.0740   -1.9660 h1        1 MOL      0.121645
     51 H23        -1.7580    4.6150   -3.7720 hc        1 MOL      0.068131
     52 H24        -3.4410    4.4380   -3.8250 hc        1 MOL      0.068131
     53 N5         -4.1690    3.7840   -0.3140 n         1 MOL     -0.028387
     54 C17        -5.2900    3.5060    0.5150 c3        1 MOL     -0.304966
     55 C18        -6.1640    2.4280   -0.0400 c         1 MOL      0.539475
     56 O9         -7.3260    2.3000    0.3490 o         1 MOL     -0.556408
     57 H25        -3.3610    3.1700   -0.2460 hn        1 MOL      0.093578
     58 H26        -5.8700    4.4120    0.6880 h1        1 MOL      0.144180
     59 H27        -4.9700    3.0100    1.4320 h1        1 MOL      0.144180
     60 N6         -5.5800    1.5650   -0.9070 n         1 MOL     -0.215204
     61 C19        -6.4700    0.5160   -1.4590 c3        1 MOL     -0.070522
     62 C20        -6.7420   -0.6660   -0.4760 c         1 MOL      0.352843
     63 O10        -7.7090   -1.3940   -0.6430 o         1 MOL     -0.486201
     64 C21        -5.8040   -0.0710   -2.6890 c3        1 MOL      0.042457
     65 C22        -4.7000   -1.1190   -2.3700 c         1 MOL      0.509488
     66 N7         -4.6420   -2.1500   -3.2440 n         1 MOL     -0.704897
     67 O11        -3.7600   -1.0190   -1.6200 o         1 MOL     -0.604837
     68 H28        -4.6630    1.7700   -1.2790 hn        1 MOL      0.151569
     69 H29        -7.3900    0.9750   -1.8320 h1        1 MOL      0.117386
     70 H30        -5.4110    0.6880   -3.3670 hc        1 MOL      0.034041
     71 H31        -6.6100   -0.4900   -3.2930 hc        1 MOL      0.034041
     72 H32        -5.3290   -2.1870   -3.9930 hn        1 MOL      0.337836
     73 H33        -3.9270   -2.8530   -3.1550 hn        1 MOL      0.337836
     74 N8         -5.8620   -0.8390    0.5510 n         1 MOL     -0.015577
     75 C23        -6.0260   -1.8000    1.6490 c3        1 MOL     -0.332462
     76 C24        -4.9330   -2.9160    1.7130 c         1 MOL      0.545674
     77 O12        -5.1730   -4.0090    2.3590 o         1 MOL     -0.522885
     78 H34        -5.1180   -0.1550    0.6030 hn        1 MOL      0.166776
     79 H35        -6.9580   -2.3380    1.4860 h1        1 MOL      0.151526
     80 H36        -6.1370   -1.3210    2.6190 h1        1 MOL      0.151526
     81 N9         -3.7840   -2.6640    1.0180 n         1 MOL     -0.355501
     82 C25        -2.7180   -3.6170    0.7660 c3        1 MOL      0.065583
     83 C26        -1.2920   -2.9930    0.6240 c         1 MOL      0.464233
     84 O13        -1.1670   -2.1120   -0.2190 o         1 MOL     -0.552613
     85 C27        -3.0120   -4.4330   -0.5750 c3        1 MOL     -0.016532
     86 C28        -4.3540   -5.0850   -0.5350 ca        1 MOL     -0.085582
     87 C29        -5.4750   -4.4260   -1.0510 ca        1 MOL     -0.141416
     88 C30        -4.5850   -6.2640    0.1630 ca        1 MOL     -0.141416
     89 C31        -6.7770   -4.9710   -0.9710 ca        1 MOL     -0.242398
     90 C32        -5.7750   -6.9690    0.0890 ca        1 MOL     -0.242398
     91 C33        -6.9260   -6.2930   -0.4870 ca        1 MOL      0.366543
     92 O14        -8.1170   -7.0110   -0.5630 oh        1 MOL     -0.508878
     93 H37        -3.6930   -1.7880    0.5310 hn        1 MOL      0.179686
     94 H38        -2.7770   -4.2640    1.6400 h1        1 MOL      0.063815
     95 H39        -2.2290   -5.1630   -0.7660 hc        1 MOL      0.039692
     96 H40        -3.0850   -3.7260   -1.4080 hc        1 MOL      0.039692
     97 H41        -5.4100   -3.3920   -1.3670 ha        1 MOL      0.132932
     98 H42        -3.7370   -6.6460    0.7010 ha        1 MOL      0.132932
     99 H43        -7.5700   -4.4200   -1.4650 ha        1 MOL      0.140947
    100 H44        -5.7990   -7.9990    0.4130 ha        1 MOL      0.140947
    101 H45        -8.0180   -7.8850   -0.1810 ho        1 MOL      0.362645
    102 N10        -0.3160   -3.3770    1.4040 n         1 MOL     -0.456690
    103 C34         1.0630   -2.7350    1.3150 c3        1 MOL      0.036689
    104 C35         2.2460   -3.6860    1.0410 c         1 MOL      0.514960
    105 O15         2.7010   -4.4430    1.9170 o         1 MOL     -0.494391
    106 C36         1.3170   -1.8730    2.5890 c3        1 MOL      0.086423
    107 C37         0.1370   -0.9160    2.9300 c3        1 MOL      0.215723
    108 C38         2.4800   -0.9400    2.5570 c3        1 MOL     -0.342053
    109 C39         0.3020   -0.1100    4.2960 c3        1 MOL     -0.344866
    110 H46        -0.5560   -4.1440    2.0110 hn        1 MOL      0.307570
    111 H47         1.0890   -2.0270    0.4830 h1        1 MOL      0.027363
    112 H48         1.4900   -2.5560    3.4140 hc        1 MOL      0.003432
    113 H49        -0.7520   -1.4920    3.1680 hc        1 MOL     -0.026320
    114 H50        -0.1340   -0.1840    2.1600 hc        1 MOL     -0.026320
    115 H51         2.8030   -0.6390    3.5490 hc        1 MOL      0.091808
    116 H52         3.3340   -1.3540    2.0260 hc        1 MOL      0.091808
    117 H53         2.1820   -0.0400    2.0080 hc        1 MOL      0.091808
    118 H54         0.7160   -0.8090    5.0160 hc        1 MOL      0.082868
    119 H55         0.9850    0.7330    4.2480 hc        1 MOL      0.082868
    120 H56        -0.6770    0.2750    4.6000 hc        1 MOL      0.082868
    121 N11         2.8080   -3.5680   -0.1920 n         1 MOL     -0.343703
    122 C40         4.0050   -4.3170   -0.4900 c3        1 MOL     -0.110547
    123 C41         5.2690   -3.7310    0.2200 c         1 MOL      0.261610
    124 O16         5.2410   -2.5830    0.7060 o         1 MOL     -0.186065
    125 C42         4.3800   -4.3300   -2.0080 c3        1 MOL     -0.015281
    126 O17         4.6100   -3.0320   -2.5190 oh        1 MOL     -0.504972
    127 H57         2.4760   -2.9250   -0.9020 hn        1 MOL      0.302590
    128 H58         3.8360   -5.3470   -0.1540 h1        1 MOL      0.124142
    129 H59         3.5580   -4.7850   -2.5510 h1        1 MOL      0.094356
    130 H60         5.2880   -4.8810   -2.2650 h1        1 MOL      0.094356
    131 H61         3.7340   -2.6560   -2.5940 ho        1 MOL      0.391333
    132 N12         6.4540   -4.3620    0.2390 n         1 MOL     -0.276518
    133 C43         7.5920   -3.7960    1.0020 c3        1 MOL      0.006965
    134 C44         8.3050   -2.5660    0.2280 c         1 MOL      0.513326
    135 O18         8.8530   -1.6480    0.8460 o         1 MOL     -0.497532
    136 C45         8.6190   -4.8830    1.4360 c3        1 MOL     -0.264925
    137 H62         6.6300   -5.1720   -0.3350 hn        1 MOL      0.247584
    138 H63         7.1860   -3.4320    1.9470 h1        1 MOL      0.122466
    139 H64         9.1430   -5.1220    0.5170 hc        1 MOL      0.087524
    140 H65         9.3550   -4.3610    2.0570 hc        1 MOL      0.087524
    141 H66         8.1810   -5.7580    1.9170 hc        1 MOL      0.087524
    142 N13         8.1190   -2.5050   -1.1000 n         1 MOL     -0.428372
    143 C46         8.4140   -1.3450   -1.9660 c3        1 MOL      0.075093
    144 C47         7.6410   -0.0930   -1.6130 c         1 MOL      0.447697
    145 O19         8.1650    0.9940   -1.7680 o         1 MOL     -0.565968
    146 C48         8.1610   -1.6800   -3.5190 c3        1 MOL     -0.416370
    147 H67         7.6630   -3.3030   -1.5210 hn        1 MOL      0.306666
    148 H68         9.4570   -1.1120   -1.7630 h1        1 MOL      0.105673
    149 H69         8.2240   -0.8190   -4.1690 hc        1 MOL      0.128311
    150 H70         8.8120   -2.5230   -3.7710 hc        1 MOL      0.128311
    151 H71         7.1260   -2.0020   -3.6450 hc        1 MOL      0.128311
    152 N14         6.4860   -0.2590   -1.0310 n         1 MOL     -0.038385
    153 C49         5.5260    0.7040   -0.5670 c3        1 MOL     -0.048482
    154 C50         5.6390    0.9710    0.9210 c         1 MOL      0.553428
    155 O20         5.7220    2.1510    1.2030 o         1 MOL     -0.571995
    156 C51         4.1350    0.1040   -1.0340 c3        1 MOL      0.000603
    157 C52         3.0670    1.0960   -0.6910 c3        1 MOL     -0.064382
    158 C53         1.6400    0.6340   -0.9330 c         1 MOL      0.634821
    159 O21         1.2480   -0.1550   -1.8650 o         1 MOL     -0.732234
    160 O22         0.7990    1.1330   -0.1690 o         1 MOL     -0.732234
    161 H72         6.2130   -1.2140   -0.8600 hn        1 MOL     -0.081657
    162 H73         5.6810    1.6810   -1.0340 h1        1 MOL      0.070551
    163 H74         4.0030   -0.8450   -0.5090 hc        1 MOL      0.002174
    164 H75         4.1680   -0.1240   -2.0970 hc        1 MOL      0.002174
    165 H76         3.3310    1.9860   -1.2580 hc        1 MOL      0.032838
    166 H77         3.1990    1.2780    0.3710 hc        1 MOL      0.032838
    167 N15         5.8470   -0.0270    1.7870 n         1 MOL     -0.187567
    168 C54         5.9950    0.0670    3.2640 c3        1 MOL     -0.168392
    169 H78         6.9670   -0.3290    3.5570 h1        1 MOL      0.091506
    170 H79         5.9210    1.1100    3.5720 h1        1 MOL      0.091506
    171 H80         5.2080   -0.5110    3.7470 h1        1 MOL      0.091506
    172 H81         5.8180   -0.9430    1.3630 hn        1 MOL      0.073972
    173 Ca1        -1.3770    0.3240   -1.3980 Ca        1 MOL      1.753187
    174 O23        -1.2780   -1.2540   -3.5840 oh        1 MOL     -0.789100
    175 H82        -1.4320   -0.7000   -4.3530 ho        1 MOL      0.396122
    176 H83        -1.6870   -2.0870   -3.8050 ho        1 MOL      0.396122
@<TRIPOS>BOND
     1    1    2 1   
     2    1    4 1   
     3    1    5 1   
     4    1    6 1   
     5    2    3 2   
     6    2    7 1   
     7    7    8 1   
     8    7   15 1   
     9    8    9 1   
    10    8   11 1   
    11    8   16 1   
    12    9   10 2   
    13    9   19 1   
    14   11   12 1   
    15   11   17 1   
    16   11   18 1   
    17   12   13 1   
    18   12   14 1   
    19   19   20 1   
    20   19   28 1   
    21   20   21 1   
    22   20   23 1   
    23   20   29 1   
    24   21   22 2   
    25   21   41 1   
    26   23   24 1   
    27   23   30 1   
    28   23   31 1   
    29   24   25 1   
    30   24   32 1   
    31   24   33 1   
    32   25   26 1   
    33   25   34 1   
    34   25   35 1   
    35   26   27 1   
    36   26   36 1   
    37   26   37 1   
    38   27   38 1   
    39   27   39 1   
    40   27   40 1   
    41   41   42 1   
    42   41   49 1   
    43   42   43 1   
    44   42   45 1   
    45   42   50 1   
    46   43   44 2   
    47   43   53 1   
    48   45   46 1   
    49   45   51 1   
    50   45   52 1   
    51   46   47 1   
    52   46   48 1   
    53   53   54 1   
    54   53   57 1   
    55   54   55 1   
    56   54   58 1   
    57   54   59 1   
    58   55   56 2   
    59   55   60 1   
    60   60   61 1   
    61   60   68 1   
    62   61   62 1   
    63   61   64 1   
    64   61   69 1   
    65   62   63 2   
    66   62   74 1   
    67   64   65 1   
    68   64   70 1   
    69   64   71 1   
    70   65   66 1   
    71   65   67 2   
    72   66   72 1   
    73   66   73 1   
    74   74   75 1   
    75   74   78 1   
    76   75   76 1   
    77   75   79 1   
    78   75   80 1   
    79   76   77 2   
    80   76   81 1   
    81   81   82 1   
    82   81   93 1   
    83   82   83 1   
    84   82   85 1   
    85   82   94 1   
    86   83   84 2   
    87   83  102 1   
    88   85   86 1   
    89   85   95 1   
    90   85   96 1   
    91   86   87 ar  
    92   86   88 ar  
    93   87   89 ar  
    94   87   97 1   
    95   88   90 ar  
    96   88   98 1   
    97   89   91 ar  
    98   89   99 1   
    99   90   91 ar  
   100   90  100 1   
   101   91   92 1   
   102   92  101 1   
   103  102  103 1   
   104  102  110 1   
   105  103  104 1   
   106  103  106 1   
   107  103  111 1   
   108  104  105 2   
   109  104  121 1   
   110  106  107 1   
   111  106  108 1   
   112  106  112 1   
   113  107  109 1   
   114  107  113 1   
   115  107  114 1   
   116  108  115 1   
   117  108  116 1   
   118  108  117 1   
   119  109  118 1   
   120  109  119 1   
   121  109  120 1   
   122  121  122 1   
   123  121  127 1   
   124  122  123 1   
   125  122  125 1   
   126  122  128 1   
   127  123  124 2   
   128  123  132 1   
   129  125  126 1   
   130  125  129 1   
   131  125  130 1   
   132  126  131 1   
   133  132  133 1   
   134  132  137 1   
   135  133  134 1   
   136  133  136 1   
   137  133  138 1   
   138  134  135 2   
   139  134  142 1   
   140  136  139 1   
   141  136  140 1   
   142  136  141 1   
   143  142  143 1   
   144  142  147 1   
   145  143  144 1   
   146  143  146 1   
   147  143  148 1   
   148  144  145 2   
   149  144  152 1   
   150  146  149 1   
   151  146  150 1   
   152  146  151 1   
   153  152  153 1   
   154  152  161 1   
   155  153  154 1   
   156  153  156 1   
   157  153  162 1   
   158  154  155 2   
   159  154  167 1   
   160  156  157 1   
   161  156  163 1   
   162  156  164 1   
   163  157  158 1   
   164  157  165 1   
   165  157  166 1   
   166  158  159 1   
   167  158  160 1   
   168  167  168 1   
   169  167  172 1   
   170  168  169 1   
   171  168  170 1   
   172  168  171 1   
   173  174  175 1   
   174  174  176 1   
@<TRIPOS>SUBSTRUCTURE
     1 MOL         1 TEMP              0 ****  ****    0 ROOT
