@<TRIPOS>MOLECULE
MOL
  189   185     1     0     0
SMALL
resp


@<TRIPOS>ATOM
      1 C1         -0.0700    2.3440    6.5660 c3        1 MOL     -0.404988
      2 C2         -0.6940    2.1360    5.1440 c         1 MOL      0.704181
      3 O1         -1.0260    1.0140    4.8260 o         1 MOL     -0.609548
      4 H1          0.8190    1.7220    6.6670 hc        1 MOL      0.102616
      5 H2          0.2030    3.3920    6.6940 hc        1 MOL      0.102616
      6 H3         -0.7980    2.0630    7.3280 hc        1 MOL      0.102616
      7 N1         -1.0320    3.1600    4.4500 n         1 MOL     -0.482999
      8 C3         -1.7000    3.1220    3.1740 c3        1 MOL      0.235780
      9 C4         -1.6040    4.4300    2.3510 c         1 MOL      0.314908
     10 O2         -1.6850    5.5840    2.8250 o         1 MOL     -0.549897
     11 C5         -3.1940    2.9500    3.4720 c3        1 MOL     -0.282623
     12 C6         -4.1570    2.5980    2.3420 c         1 MOL      0.828446
     13 O3         -5.3390    2.2910    2.6860 o         1 MOL     -0.725444
     14 O4         -3.7580    2.2950    1.2080 o         1 MOL     -0.725444
     15 H4         -0.7140    4.0580    4.7720 hn        1 MOL      0.275445
     16 H5         -1.3950    2.2210    2.6500 h1        1 MOL      0.071683
     17 H6         -3.6220    3.8130    3.9890 hc        1 MOL      0.056371
     18 H7         -3.2470    2.0930    4.1390 hc        1 MOL      0.056371
     19 N2         -1.5860    4.2610    1.0030 n         1 MOL     -0.103475
     20 C7         -1.5670    5.3950    0.0690 c3        1 MOL     -0.082249
     21 C8         -2.7470    5.3530   -0.9360 c         1 MOL      0.533722
     22 O5         -3.0450    6.4180   -1.5660 o         1 MOL     -0.589043
     23 C9         -0.1640    5.2720   -0.6600 c3        1 MOL      0.254539
     24 C10         1.0180    5.0360    0.3070 c3        1 MOL      0.059333
     25 C11         0.0780    6.4310   -1.6410 c3        1 MOL     -0.119602
     26 C12         2.4130    4.9470   -0.2710 c3        1 MOL     -0.349906
     27 H8         -1.4300    3.3080    0.6930 hn        1 MOL      0.134053
     28 H9         -1.5000    6.3700    0.5580 h1        1 MOL      0.063370
     29 H10        -0.1800    4.4060   -1.3160 hc        1 MOL      0.008667
     30 H11         0.8790    4.1180    0.8920 hc        1 MOL     -0.028721
     31 H12         1.0520    5.8110    1.0720 hc        1 MOL     -0.028721
     32 H13         0.7400    6.0180   -2.3960 hc        1 MOL      0.010530
     33 H14        -0.8250    6.7870   -2.1390 hc        1 MOL      0.010530
     34 H15         0.5940    7.2700   -1.1760 hc        1 MOL      0.010530
     35 H16         3.0660    4.4600    0.4570 hc        1 MOL      0.088148
     36 H17         2.3890    4.3670   -1.1890 hc        1 MOL      0.088148
     37 H18         2.8140    5.9610   -0.3120 hc        1 MOL      0.088148
     38 N3         -3.4340    4.2010   -1.1340 n         1 MOL     -0.404034
     39 C13        -4.3650    4.0030   -2.2560 c3        1 MOL      0.138237
     40 C14        -5.6640    3.2730   -1.8880 c         1 MOL      0.326110
     41 O6         -6.5320    3.0950   -2.7450 o         1 MOL     -0.545264
     42 C15        -3.7030    3.2740   -3.4590 c3        1 MOL     -0.280704
     43 C16        -3.1460    1.8930   -3.2080 c         1 MOL      0.859726
     44 O7         -3.0490    1.4590   -2.0520 o         1 MOL     -0.741857
     45 O8         -2.5970    1.3160   -4.1380 o         1 MOL     -0.741857
     46 H19        -3.1310    3.4520   -0.5350 hn        1 MOL      0.182321
     47 H20        -4.6020    4.9880   -2.6610 h1        1 MOL      0.075429
     48 H21        -2.9590    3.9340   -3.9080 hc        1 MOL      0.065434
     49 H22        -4.5280    3.0500   -4.1420 hc        1 MOL      0.065434
     50 N4         -5.8050    2.7970   -0.6920 n         1 MOL     -0.108760
     51 C17        -7.1380    2.3610   -0.1720 c3        1 MOL     -0.135304
     52 C18        -7.6580    0.9980   -0.5270 c         1 MOL      0.450027
     53 O9         -8.7420    0.5570   -0.2660 o         1 MOL     -0.574629
     54 H23        -5.0670    2.9370   -0.0100 hn        1 MOL      0.115099
     55 H24        -7.8760    3.1230   -0.4060 h1        1 MOL      0.101215
     56 H25        -7.1210    2.4660    0.9150 h1        1 MOL      0.101215
     57 N5         -6.7800    0.1000   -1.0620 n         1 MOL     -0.123089
     58 C19        -7.1720   -1.1700   -1.6880 c3        1 MOL     -0.027463
     59 C20        -7.5110   -2.3420   -0.8110 c         1 MOL      0.545332
     60 O10        -8.3560   -3.1860   -1.1150 o         1 MOL     -0.582861
     61 C21        -6.1100   -1.6440   -2.7440 c3        1 MOL     -0.268834
     62 C22        -4.6690   -1.7820   -2.2430 c         1 MOL      0.647985
     63 O11        -4.2770   -1.3890   -1.0890 o         1 MOL     -0.629819
     64 O12        -3.8470   -2.2490   -3.0960 o         1 MOL     -0.629819
     65 H26        -5.8710    0.5010   -1.2310 hn        1 MOL      0.142088
     66 H27        -8.1020   -0.9740   -2.2230 h1        1 MOL      0.076984
     67 H28        -6.1800   -0.8820   -3.5320 hc        1 MOL      0.091340
     68 H29        -6.5300   -2.5490   -3.1750 hc        1 MOL      0.091340
     69 N6         -6.8970   -2.3820    0.3720 n         1 MOL     -0.355270
     70 C23        -6.8740   -3.6380    1.2540 c3        1 MOL     -0.009231
     71 C24        -5.5270   -4.3260    1.2460 c         1 MOL      0.429935
     72 O13        -5.4900   -5.4690    1.7710 o         1 MOL     -0.592514
     73 H30        -6.3160   -1.6250    0.6860 hn        1 MOL      0.252005
     74 H31        -7.6360   -4.3710    1.0030 h1        1 MOL      0.075189
     75 H32        -7.1170   -3.3260    2.2620 h1        1 MOL      0.075189
     76 N7         -4.4440   -3.7880    0.6920 n         1 MOL     -0.134387
     77 C25        -3.1520   -4.4390    0.4940 c3        1 MOL     -0.026970
     78 C26        -1.8990   -3.6240    0.8790 c         1 MOL      0.142133
     79 O14        -1.8600   -2.4090    0.7180 o         1 MOL     -0.279120
     80 C27        -2.9540   -4.8600   -0.9300 c3        1 MOL      0.107982
     81 C28        -4.0830   -5.7050   -1.5800 c3        1 MOL     -0.427666
     82 C29        -3.6500   -5.9790   -3.0440 c         1 MOL      0.668481
     83 N8         -3.6040   -4.9840   -3.8990 n         1 MOL     -0.781070
     84 O15        -3.3810   -7.1220   -3.4090 o         1 MOL     -0.615439
     85 H33        -4.5870   -2.8550    0.3210 hn        1 MOL      0.068149
     86 H34        -3.1350   -5.4060    0.9920 h1        1 MOL      0.047335
     87 H35        -2.0270   -5.4360   -0.9480 hc        1 MOL      0.030146
     88 H36        -2.8520   -3.8840   -1.3990 hc        1 MOL      0.030146
     89 H37        -5.0270   -5.1530   -1.6090 hc        1 MOL      0.148481
     90 H38        -4.2700   -6.6660   -1.0880 hc        1 MOL      0.148481
     91 H39        -3.8680   -4.0530   -3.6240 hn        1 MOL      0.359717
     92 H40        -3.1810   -5.0790   -4.8190 hn        1 MOL      0.359717
     93 N9         -0.8650   -4.2050    1.4440 n         1 MOL     -0.191432
     94 C30         0.4100   -3.6010    1.8660 c3        1 MOL     -0.135899
     95 C31         1.4190   -3.6380    0.6710 c         1 MOL      0.444699
     96 O16         2.0860   -4.6270    0.4460 o         1 MOL     -0.567688
     97 C32         0.9490   -4.2810    3.1410 c3        1 MOL      0.408087
     98 C33         2.0750   -3.5580    3.8640 c3        1 MOL     -0.355291
     99 C34        -0.1690   -4.4360    4.1780 c3        1 MOL     -0.355291
    100 H41        -0.8910   -5.2150    1.3700 hn        1 MOL      0.246287
    101 H42         0.2640   -2.5460    2.1080 h1        1 MOL      0.134372
    102 H43         1.2760   -5.2820    2.8870 hc        1 MOL     -0.063260
    103 H44         2.8840   -3.4150    3.1560 hc        1 MOL      0.072163
    104 H45         1.7480   -2.5950    4.2670 hc        1 MOL      0.072163
    105 H46         2.4230   -4.1960    4.6720 hc        1 MOL      0.072163
    106 H47         0.2170   -4.8700    5.0970 hc        1 MOL      0.072163
    107 H48        -0.5910   -3.4620    4.3970 hc        1 MOL      0.072163
    108 H49        -0.8980   -5.1630    3.8010 hc        1 MOL      0.072163
    109 N10         1.4740   -2.5650   -0.1030 n         1 MOL     -0.184846
    110 C35         2.4390   -2.2600   -1.1850 c3        1 MOL     -0.043751
    111 C36         3.8810   -2.1120   -0.6240 c         1 MOL      0.417356
    112 O17         4.0920   -1.8100    0.5520 o         1 MOL     -0.316107
    113 C37         1.8380   -1.0940   -1.9580 c3        1 MOL     -0.244606
    114 C38         2.8470   -0.3420   -2.8850 c         1 MOL      0.595070
    115 N11         2.8350    0.9720   -3.0270 n         1 MOL     -0.604718
    116 O18         3.6420   -0.9150   -3.5560 o         1 MOL     -0.580095
    117 H50         0.8450   -1.8210    0.1590 hn        1 MOL      0.190097
    118 H51         2.4990   -3.1450   -1.8240 h1        1 MOL      0.097518
    119 H52         1.5310   -0.2950   -1.2860 hc        1 MOL      0.136969
    120 H53         1.0600   -1.3540   -2.6710 hc        1 MOL      0.136969
    121 H54         2.0310    1.4910   -2.7100 hn        1 MOL      0.310166
    122 H55         3.4850    1.4210   -3.6520 hn        1 MOL      0.310166
    123 N12         4.9300   -2.3200   -1.4170 n         1 MOL     -0.452506
    124 C39         6.2960   -2.0750   -0.9060 c3        1 MOL      0.232032
    125 C40         6.5130   -0.6360   -0.3890 c         1 MOL      0.434770
    126 O19         7.3330   -0.4090    0.5320 o         1 MOL     -0.482660
    127 C41         7.3000   -2.4290   -2.0010 c3        1 MOL     -0.235196
    128 C42         8.7250   -2.0970   -1.5300 ca        1 MOL      0.024967
    129 C43         9.4140   -2.7820   -0.4630 ca        1 MOL     -0.190901
    130 C44         9.4380   -1.0970   -2.1600 ca        1 MOL     -0.190901
    131 C45        10.6710   -2.4670    0.0130 ca        1 MOL     -0.172422
    132 C46        10.7900   -0.8670   -1.8110 ca        1 MOL     -0.172422
    133 C47        11.3750   -1.4890   -0.6520 ca        1 MOL      0.215239
    134 O20        12.5430   -0.9790   -0.1550 oh        1 MOL     -0.442677
    135 H56         4.8180   -2.5680   -2.3900 hn        1 MOL      0.264582
    136 H57         6.3290   -2.7800   -0.0710 h1        1 MOL      0.036837
    137 H58         7.1860   -1.8710   -2.9310 hc        1 MOL      0.103972
    138 H59         7.3160   -3.5030   -2.1860 hc        1 MOL      0.103972
    139 H60         8.8730   -3.5430    0.0770 ha        1 MOL      0.133346
    140 H61         8.9800   -0.5600   -2.9860 ha        1 MOL      0.133346
    141 H62        11.2000   -2.9220    0.8340 ha        1 MOL      0.120880
    142 H63        11.3700   -0.2350   -2.4630 ha        1 MOL      0.120880
    143 H64        12.8810   -0.3820   -0.8250 ho        1 MOL      0.329666
    144 N13         5.8540    0.3270   -0.9730 n         1 MOL     -0.181748
    145 C48         6.0340    1.7330   -0.5480 c3        1 MOL     -0.166299
    146 C49         5.2800    1.9480    0.7820 c         1 MOL      0.288707
    147 O21         5.4650    3.0240    1.4060 o         1 MOL     -0.521191
    148 C50         5.5520    2.7050   -1.5940 c3        1 MOL      0.148338
    149 C51         6.0040    2.3840   -3.0060 c3        1 MOL     -0.200314
    150 C52         5.4000    3.3380   -4.0010 c         1 MOL      0.670917
    151 O22         4.2880    3.0430   -4.5290 o         1 MOL     -0.702374
    152 O23         5.9970    4.4020   -4.2090 o         1 MOL     -0.702374
    153 H65         5.1880    0.0620   -1.6860 hn        1 MOL      0.206190
    154 H66         7.0640    2.0560   -0.4060 h1        1 MOL      0.141061
    155 H67         5.8560    3.7010   -1.2890 hc        1 MOL      0.017949
    156 H68         4.4710    2.5950   -1.6070 hc        1 MOL      0.017949
    157 H69         5.7170    1.3530   -3.2250 hc        1 MOL      0.007258
    158 H70         7.0870    2.4800   -3.0110 hc        1 MOL      0.007258
    159 N14         4.4740    0.9660    1.1820 n         1 MOL     -0.010117
    160 C53         3.7670    0.9370    2.5090 c3        1 MOL      0.009059
    161 C54         4.4650    0.0680    3.5340 c         1 MOL      0.472949
    162 O24         4.4930    0.5020    4.7220 o         1 MOL     -0.561436
    163 C55         2.3100    0.4850    2.1410 c3        1 MOL     -0.205463
    164 C56         1.4220    1.5810    1.5060 c3        1 MOL      0.312870
    165 C57         0.1170    1.0180    0.8590 c         1 MOL      0.500042
    166 O25        -0.6930    1.7390    0.2370 o         1 MOL     -0.684523
    167 O26        -0.1180   -0.2090    0.9320 o         1 MOL     -0.684523
    168 H71         4.5570    0.1550    0.5900 hn        1 MOL      0.026032
    169 H72         3.7200    1.9690    2.8670 h1        1 MOL      0.065641
    170 H73         1.7130    0.2060    3.0150 hc        1 MOL      0.031570
    171 H74         2.4380   -0.3240    1.4220 hc        1 MOL      0.031570
    172 H75         2.0500    2.1060    0.7780 hc        1 MOL     -0.076649
    173 H76         1.0810    2.2960    2.2530 hc        1 MOL     -0.076649
    174 N15         5.0550   -1.0950    3.1630 n         1 MOL     -0.204879
    175 C58         5.9760   -1.9020    4.0260 c3        1 MOL     -0.107299
    176 H77         5.6480   -2.9420    4.0330 h1        1 MOL      0.062866
    177 H78         6.9900   -1.8440    3.6310 h1        1 MOL      0.062866
    178 H79         5.9580   -1.5100    5.0440 h1        1 MOL      0.062866
    179 H80         5.0830   -1.3730    2.1900 hn        1 MOL      0.123762
    180 Ca1        -2.7800    0.1580    0.2450 Ca        1 MOL      1.753247
    181 O27        -2.4640   -0.1830    2.9600 oh        1 MOL     -0.957166
    182 H81        -1.6100    0.0190    3.3500 ho        1 MOL      0.447215
    183 H82        -3.0560   -0.2610    3.7100 ho        1 MOL      0.447215
    184 O28        -1.6550   -1.1860   -2.0850 oh        1 MOL     -0.957166
    185 H83        -1.6980   -0.6980   -2.9110 ho        1 MOL      0.447215
    186 H84        -2.4140   -1.7650   -2.1090 ho        1 MOL      0.447215
    187 O29        -5.0530   -0.4300    1.8090 oh        1 MOL     -0.957166
    188 H85        -4.9950   -0.9940    2.5710 ho        1 MOL      0.447215
    189 H86        -5.2180    0.4430    2.1590 ho        1 MOL      0.447215
@<TRIPOS>BOND
     1    1    2 1   
     2    1    4 1   
     3    1    5 1   
     4    1    6 1   
     5    2    3 2   
     6    2    7 1   
     7    7    8 1   
     8    7   15 1   
     9    8    9 1   
    10    8   11 1   
    11    8   16 1   
    12    9   10 2   
    13    9   19 1   
    14   11   12 1   
    15   11   17 1   
    16   11   18 1   
    17   12   13 1   
    18   12   14 1   
    19   19   20 1   
    20   19   27 1   
    21   20   21 1   
    22   20   23 1   
    23   20   28 1   
    24   21   22 2   
    25   21   38 1   
    26   23   24 1   
    27   23   25 1   
    28   23   29 1   
    29   24   26 1   
    30   24   30 1   
    31   24   31 1   
    32   25   32 1   
    33   25   33 1   
    34   25   34 1   
    35   26   35 1   
    36   26   36 1   
    37   26   37 1   
    38   38   39 1   
    39   38   46 1   
    40   39   40 1   
    41   39   42 1   
    42   39   47 1   
    43   40   41 2   
    44   40   50 1   
    45   42   43 1   
    46   42   48 1   
    47   42   49 1   
    48   43   44 1   
    49   43   45 1   
    50   50   51 1   
    51   50   54 1   
    52   51   52 1   
    53   51   55 1   
    54   51   56 1   
    55   52   53 2   
    56   52   57 1   
    57   57   58 1   
    58   57   65 1   
    59   58   59 1   
    60   58   61 1   
    61   58   66 1   
    62   59   60 2   
    63   59   69 1   
    64   61   62 1   
    65   61   67 1   
    66   61   68 1   
    67   62   63 1   
    68   62   64 1   
    69   69   70 1   
    70   69   73 1   
    71   70   71 1   
    72   70   74 1   
    73   70   75 1   
    74   71   72 2   
    75   71   76 1   
    76   76   77 1   
    77   76   85 1   
    78   77   78 1   
    79   77   80 1   
    80   77   86 1   
    81   78   79 2   
    82   78   93 1   
    83   80   81 1   
    84   80   87 1   
    85   80   88 1   
    86   81   82 1   
    87   81   89 1   
    88   81   90 1   
    89   82   83 1   
    90   82   84 2   
    91   83   91 1   
    92   83   92 1   
    93   93   94 1   
    94   93  100 1   
    95   94   95 1   
    96   94   97 1   
    97   94  101 1   
    98   95   96 2   
    99   95  109 1   
   100   97   98 1   
   101   97   99 1   
   102   97  102 1   
   103   98  103 1   
   104   98  104 1   
   105   98  105 1   
   106   99  106 1   
   107   99  107 1   
   108   99  108 1   
   109  109  110 1   
   110  109  117 1   
   111  110  111 1   
   112  110  113 1   
   113  110  118 1   
   114  111  112 2   
   115  111  123 1   
   116  113  114 1   
   117  113  119 1   
   118  113  120 1   
   119  114  115 1   
   120  114  116 2   
   121  115  121 1   
   122  115  122 1   
   123  123  124 1   
   124  123  135 1   
   125  124  125 1   
   126  124  127 1   
   127  124  136 1   
   128  125  126 2   
   129  125  144 1   
   130  127  128 1   
   131  127  137 1   
   132  127  138 1   
   133  128  129 ar  
   134  128  130 ar  
   135  129  131 ar  
   136  129  139 1   
   137  130  132 ar  
   138  130  140 1   
   139  131  133 ar  
   140  131  141 1   
   141  132  133 ar  
   142  132  142 1   
   143  133  134 1   
   144  134  143 1   
   145  144  145 1   
   146  144  153 1   
   147  145  146 1   
   148  145  148 1   
   149  145  154 1   
   150  146  147 2   
   151  146  159 1   
   152  148  149 1   
   153  148  155 1   
   154  148  156 1   
   155  149  150 1   
   156  149  157 1   
   157  149  158 1   
   158  150  151 1   
   159  150  152 1   
   160  159  160 1   
   161  159  168 1   
   162  160  161 1   
   163  160  163 1   
   164  160  169 1   
   165  161  162 2   
   166  161  174 1   
   167  163  164 1   
   168  163  170 1   
   169  163  171 1   
   170  164  165 1   
   171  164  172 1   
   172  164  173 1   
   173  165  166 1   
   174  165  167 1   
   175  174  175 1   
   176  174  179 1   
   177  175  176 1   
   178  175  177 1   
   179  175  178 1   
   180  181  182 1   
   181  181  183 1   
   182  184  185 1   
   183  184  186 1   
   184  187  188 1   
   185  187  189 1   
@<TRIPOS>SUBSTRUCTURE
     1 MOL         1 TEMP              0 ****  ****    0 ROOT
