@<TRIPOS>MOLECULE
MOL
  175   173     1     0     0
SMALL
resp


@<TRIPOS>ATOM
      1 C1          0.4390    4.0130    5.3870 c3        1 MOL     -0.359870
      2 C2         -0.1640    3.9480    4.0130 c         1 MOL      0.738010
      3 O1          0.5380    4.1310    3.0240 o         1 MOL     -0.551575
      4 H1         -0.2850    4.4370    6.0820 hc        1 MOL      0.087903
      5 H2          0.7090    3.0090    5.7140 hc        1 MOL      0.087903
      6 H3          1.3310    4.6400    5.3640 hc        1 MOL      0.087903
      7 N1         -1.4750    3.7060    3.8320 n         1 MOL     -0.677389
      8 C3         -2.2060    3.4930    2.5850 c3        1 MOL      0.300415
      9 C4         -2.4870    4.7510    1.7340 c         1 MOL      0.631523
     10 O2         -2.6140    5.8300    2.3580 o         1 MOL     -0.588140
     11 C5         -3.5310    2.7300    2.8290 c3        1 MOL     -0.272603
     12 C6         -4.1560    2.4250    1.5120 c         1 MOL      0.659567
     13 O3         -3.4130    1.8550    0.6440 o         1 MOL     -0.633004
     14 O4         -5.2120    3.0490    1.1870 o         1 MOL     -0.633004
     15 H4         -2.0220    3.8100    4.6760 hn        1 MOL      0.312207
     16 H5         -1.5650    2.8570    1.9720 h1        1 MOL     -0.051017
     17 H6         -4.2530    3.3240    3.3820 hc        1 MOL      0.033552
     18 H7         -3.3240    1.7870    3.3390 hc        1 MOL      0.033552
     19 N2         -2.6030    4.5440    0.4020 n         1 MOL     -0.584911
     20 C7         -3.0610    5.5780   -0.5180 c3        1 MOL      0.243555
     21 C8         -4.0140    5.1350   -1.6790 c         1 MOL      0.491326
     22 O5         -4.4800    5.8770   -2.5280 o         1 MOL     -0.597582
     23 C9         -1.7560    6.2210   -1.0580 c3        1 MOL     -0.333995
     24 H8         -2.4520    3.6070    0.0350 hn        1 MOL      0.418181
     25 H9         -3.7070    6.2970   -0.0170 h1        1 MOL      0.035416
     26 H10        -1.0680    5.4640   -1.4430 hc        1 MOL      0.082077
     27 H11        -2.0240    6.8490   -1.9010 hc        1 MOL      0.082077
     28 H12        -1.2830    6.8520   -0.3040 hc        1 MOL      0.082077
     29 N3         -4.3510    3.8570   -1.7700 n         1 MOL     -0.193599
     30 C10        -5.1210    3.2210   -2.8530 c3        1 MOL      0.052498
     31 C11        -6.3170    2.3550   -2.3390 c         1 MOL      0.285868
     32 O6         -7.2260    2.1140   -3.1660 o         1 MOL     -0.545826
     33 C12        -4.2100    2.2940   -3.6800 c3        1 MOL     -0.062579
     34 C13        -3.4610    1.2540   -2.8500 c         1 MOL      0.634751
     35 O7         -4.1470    0.5160   -2.1390 o         1 MOL     -0.707139
     36 O8         -2.2090    1.2590   -2.6630 o         1 MOL     -0.707139
     37 H13        -3.9420    3.2160   -1.1000 hn        1 MOL      0.080444
     38 H14        -5.5430    3.9450   -3.5540 h1        1 MOL      0.096940
     39 H15        -3.5420    2.8810   -4.3180 hc        1 MOL      0.018323
     40 H16        -4.8150    1.8360   -4.4630 hc        1 MOL      0.018323
     41 N4         -6.3660    1.9700   -1.0920 n         1 MOL     -0.029471
     42 C14        -7.5160    1.1450   -0.6450 c3        1 MOL     -0.134281
     43 C15        -7.5490   -0.3170   -1.1020 c         1 MOL      0.458271
     44 O9         -8.6210   -0.9430   -1.1700 o         1 MOL     -0.612265
     45 H17        -5.6530    2.2940   -0.4540 hn        1 MOL      0.091941
     46 H18        -8.4320    1.5680   -1.0590 h1        1 MOL      0.082041
     47 H19        -7.5980    1.1930    0.4380 h1        1 MOL      0.082041
     48 N5         -6.4020   -0.9570   -1.3930 n         1 MOL     -0.025625
     49 C16        -6.1660   -2.3520   -1.8690 c3        1 MOL     -0.134349
     50 C17        -6.0590   -3.3960   -0.7540 c         1 MOL      0.488204
     51 O10        -5.6780   -4.5070   -1.0950 o         1 MOL     -0.493715
     52 C18        -5.0810   -2.4490   -2.9540 c3        1 MOL     -0.162372
     53 C19        -3.7050   -2.3860   -2.3600 c         1 MOL      0.700246
     54 N6         -2.7020   -2.6480   -3.1520 n         1 MOL     -0.638510
     55 O11        -3.3800   -2.1190   -1.2260 o         1 MOL     -0.576971
     56 H20        -5.5920   -0.3670   -1.4210 hn        1 MOL      0.097724
     57 H21        -7.1040   -2.5580   -2.3850 h1        1 MOL      0.113044
     58 H22        -5.2710   -1.6870   -3.7100 hc        1 MOL      0.076450
     59 H23        -5.2700   -3.4180   -3.4100 hc        1 MOL      0.076450
     60 H24        -2.7540   -2.6860   -4.1620 hn        1 MOL      0.312831
     61 H25        -1.7820   -2.4690   -2.7720 hn        1 MOL      0.312831
     62 N7         -6.1670   -2.9690    0.4910 n         1 MOL     -0.284569
     63 C20        -5.9760   -3.8060    1.6680 c3        1 MOL     -0.236739
     64 C21        -4.6470   -4.5050    1.9090 c         1 MOL      0.489951
     65 O12        -4.5270   -5.5170    2.5790 o         1 MOL     -0.568008
     66 H26        -6.0640   -1.9710    0.5760 hn        1 MOL      0.213273
     67 H27        -6.7570   -4.5650    1.7000 h1        1 MOL      0.121970
     68 H28        -6.0180   -3.0900    2.4890 h1        1 MOL      0.121970
     69 N8         -3.5410   -4.0060    1.3350 n         1 MOL     -0.038385
     70 C22        -2.2020   -4.6220    1.4730 c3        1 MOL     -0.322794
     71 C23        -1.2120   -3.5030    1.4340 c         1 MOL      0.474579
     72 O13        -1.4760   -2.4110    0.8550 o         1 MOL     -0.465220
     73 C24        -1.8320   -5.4980    0.2340 c3        1 MOL      0.688428
     74 C25        -2.5950   -6.7630    0.2900 c3        1 MOL     -0.603858
     75 O14        -2.0800   -4.8210   -0.9920 oh        1 MOL     -0.574740
     76 H29        -3.7030   -3.2530    0.6790 hn        1 MOL      0.012950
     77 H30        -2.0750   -5.2050    2.3830 h1        1 MOL      0.142654
     78 H31        -0.7780   -5.7480    0.3280 h1        1 MOL     -0.081087
     79 H32        -2.3460   -3.9330   -0.7590 ho        1 MOL      0.266457
     80 H33        -2.4140   -7.1720    1.2870 hc        1 MOL      0.139884
     81 H34        -3.6780   -6.6950    0.3370 hc        1 MOL      0.139884
     82 H35        -2.4320   -7.4410   -0.5470 hc        1 MOL      0.139884
     83 N9         -0.0640   -3.7080    2.0500 n         1 MOL     -0.335956
     84 C26         1.1010   -2.7710    1.9770 c3        1 MOL     -0.149231
     85 C27         1.8280   -3.0560    0.6820 c         1 MOL      0.495128
     86 O15         2.2780   -4.1520    0.4010 o         1 MOL     -0.579414
     87 C28         2.0360   -2.9520    3.2460 c3        1 MOL      0.296403
     88 C29         1.3210   -2.4970    4.4940 c3        1 MOL     -0.009984
     89 C30         3.3580   -2.2290    2.9850 c3        1 MOL     -0.310365
     90 C31         2.0080   -3.1280    5.7160 c3        1 MOL     -0.049663
     91 H36        -0.0790   -4.4810    2.6980 hn        1 MOL      0.257182
     92 H37         0.7210   -1.7470    1.9740 h1        1 MOL     -0.003041
     93 H38         2.2290   -4.0210    3.3430 hc        1 MOL     -0.035559
     94 H39         0.2620   -2.7680    4.4380 hc        1 MOL      0.000493
     95 H40         1.4490   -1.4150    4.6180 hc        1 MOL      0.000493
     96 H41         4.0570   -2.8110    2.3960 hc        1 MOL      0.068979
     97 H42         3.1990   -1.2200    2.6030 hc        1 MOL      0.068979
     98 H43         3.8920   -2.1100    3.9310 hc        1 MOL      0.068979
     99 H44         1.9140   -4.2080    5.6310 hc        1 MOL     -0.000810
    100 H45         3.0480   -2.8230    5.8720 hc        1 MOL     -0.000810
    101 H46         1.4740   -2.8280    6.6210 hc        1 MOL     -0.000810
    102 N10         2.0000   -2.0410   -0.1150 n         1 MOL     -0.069341
    103 C32         2.7310   -2.0420   -1.3150 c3        1 MOL     -0.020956
    104 C33         4.1490   -1.4040   -1.0970 c         1 MOL      0.404460
    105 O16         4.3610   -0.8290   -0.0330 o         1 MOL     -0.340770
    106 C34         1.9980   -1.1930   -2.3540 c3        1 MOL     -0.254251
    107 C35         0.5200   -1.5880   -2.5990 c         1 MOL      0.714876
    108 O17        -0.3910   -1.2040   -1.8650 o         1 MOL     -0.670330
    109 O18         0.1950   -2.0570   -3.6880 o         1 MOL     -0.670330
    110 H47         1.5850   -1.1570    0.1410 hn        1 MOL      0.107634
    111 H48         2.8960   -3.0520   -1.6710 h1        1 MOL      0.085447
    112 H49         2.4370   -1.2900   -3.3420 hc        1 MOL      0.068962
    113 H50         1.9830   -0.1460   -2.0390 hc        1 MOL      0.068962
    114 N11         5.1780   -1.7110   -1.9640 n         1 MOL     -0.590190
    115 C36         6.5830   -1.3360   -1.6850 c3        1 MOL      0.351979
    116 C37         6.7450    0.1030   -1.2570 c         1 MOL      0.319652
    117 O19         7.3740    0.2860   -0.2370 o         1 MOL     -0.475500
    118 C38         7.4900   -1.7530   -2.8400 c3        1 MOL     -0.260879
    119 C39         8.9100   -1.3920   -2.5480 ca        1 MOL      0.249831
    120 C40         9.5540   -2.0000   -1.4390 ca        1 MOL     -0.271884
    121 C41         9.6220   -0.4900   -3.4320 ca        1 MOL     -0.271884
    122 C42        10.8710   -1.6750   -1.1020 ca        1 MOL     -0.074719
    123 C43        10.9300   -0.1400   -2.9930 ca        1 MOL     -0.074719
    124 C44        11.5130   -0.7440   -1.8660 ca        1 MOL     -0.118914
    125 H51         5.0270   -2.3340   -2.7470 hn        1 MOL      0.320337
    126 H52         6.7880   -1.9980   -0.8400 h1        1 MOL      0.033316
    127 H53         7.0440   -1.2140   -3.6750 hc        1 MOL      0.064174
    128 H54         7.4790   -2.8130   -3.0830 hc        1 MOL      0.064174
    129 H55         8.9690   -2.6420   -0.8010 ha        1 MOL      0.147043
    130 H56         9.1050   -0.0180   -4.2530 ha        1 MOL      0.147043
    131 H57        11.2540   -2.0260   -0.1500 ha        1 MOL      0.109509
    132 H58        11.5020    0.6280   -3.5000 ha        1 MOL      0.109509
    133 H59        12.4940   -0.3980   -1.6030 ha        1 MOL      0.088381
    134 N12         6.1270    1.0940   -1.8730 n         1 MOL     -0.107971
    135 C45         6.2620    2.4480   -1.2840 c3        1 MOL      0.005884
    136 C46         5.7990    2.6670    0.1880 c         1 MOL      0.335443
    137 O20         6.3330    3.4320    0.9290 o         1 MOL     -0.486478
    138 C47         5.4550    3.4060   -2.1750 c3        1 MOL      0.045406
    139 C48         5.1910    2.6320   -3.4740 c3        1 MOL     -0.066573
    140 C49         5.2480    1.1660   -3.0150 c3        1 MOL     -0.003700
    141 H60         7.3170    2.7330   -1.3650 h1        1 MOL      0.041507
    142 H61         4.5280    3.6060   -1.6390 hc        1 MOL      0.016093
    143 H62         5.8270    4.4190   -2.2530 hc        1 MOL      0.016093
    144 H63         4.2920    2.9240   -4.0070 hc        1 MOL      0.034325
    145 H64         6.0280    2.8670   -4.1250 hc        1 MOL      0.034325
    146 H65         4.2740    0.7180   -2.8450 h1        1 MOL      0.026269
    147 H66         5.6970    0.5520   -3.7900 h1        1 MOL      0.026269
    148 N13         4.6720    2.0040    0.5900 n         1 MOL     -0.126304
    149 C50         3.9800    2.1820    1.8830 c3        1 MOL     -0.060127
    150 C51         4.7580    1.5810    3.0620 c         1 MOL      0.416480
    151 O21         4.8260    2.1580    4.1420 o         1 MOL     -0.516704
    152 C52         2.5390    1.6360    1.8080 c3        1 MOL     -0.172606
    153 C53         1.7490    2.3960    0.8320 c3        1 MOL     -0.027586
    154 C54         0.4130    1.6750    0.5780 c         1 MOL      0.756720
    155 O22        -0.4260    2.1680   -0.1770 o         1 MOL     -0.751612
    156 O23         0.1840    0.5120    1.0440 o         1 MOL     -0.751612
    157 H67         4.1590    1.5220   -0.1340 hn        1 MOL      0.210914
    158 H68         3.8060    3.2250    2.1280 h1        1 MOL      0.086239
    159 H69         2.0870    1.8430    2.7840 hc        1 MOL      0.077768
    160 H70         2.5730    0.5670    1.5890 hc        1 MOL      0.077768
    161 H71         2.2040    2.3540   -0.1590 hc        1 MOL      0.033353
    162 H72         1.5690    3.4540    1.0700 hc        1 MOL      0.033353
    163 N14         5.4290    0.4260    2.6130 n         1 MOL     -0.033463
    164 C55         6.4630   -0.2920    3.4460 c3        1 MOL     -0.206059
    165 H73         7.0370   -0.9650    2.8090 h1        1 MOL      0.076445
    166 H74         7.1340    0.4370    3.9000 h1        1 MOL      0.076445
    167 H75         5.9660   -0.8660    4.2270 h1        1 MOL      0.076445
    168 H76         5.2980    0.1530    1.6550 hn        1 MOL      0.052119
    169 Ca1        -1.9990   -0.0420   -0.2690 Ca        1 MOL      1.713056
    170 O24        -4.0270   -0.9280    1.6620 oh        1 MOL     -0.727451
    171 H77        -4.7980   -0.4300    1.9460 ho        1 MOL      0.367336
    172 H78        -3.4650   -0.9430    2.4360 ho        1 MOL      0.367336
    173 O25        -1.6530   -0.2220    2.9680 oh        1 MOL     -0.727451
    174 H79        -0.8750    0.1380    2.5330 ho        1 MOL      0.367336
    175 H80        -1.5330    0.0090    3.8860 ho        1 MOL      0.367336
@<TRIPOS>BOND
     1    1    2 1   
     2    1    4 1   
     3    1    5 1   
     4    1    6 1   
     5    2    3 2   
     6    2    7 1   
     7    7    8 1   
     8    7   15 1   
     9    8    9 1   
    10    8   11 1   
    11    8   16 1   
    12    9   10 2   
    13    9   19 1   
    14   11   12 1   
    15   11   17 1   
    16   11   18 1   
    17   12   13 1   
    18   12   14 1   
    19   19   20 1   
    20   19   24 1   
    21   20   21 1   
    22   20   23 1   
    23   20   25 1   
    24   21   22 2   
    25   21   29 1   
    26   23   26 1   
    27   23   27 1   
    28   23   28 1   
    29   29   30 1   
    30   29   37 1   
    31   30   31 1   
    32   30   33 1   
    33   30   38 1   
    34   31   32 2   
    35   31   41 1   
    36   33   34 1   
    37   33   39 1   
    38   33   40 1   
    39   34   35 1   
    40   34   36 1   
    41   41   42 1   
    42   41   45 1   
    43   42   43 1   
    44   42   46 1   
    45   42   47 1   
    46   43   44 2   
    47   43   48 1   
    48   48   49 1   
    49   48   56 1   
    50   49   50 1   
    51   49   52 1   
    52   49   57 1   
    53   50   51 2   
    54   50   62 1   
    55   52   53 1   
    56   52   58 1   
    57   52   59 1   
    58   53   54 1   
    59   53   55 2   
    60   54   60 1   
    61   54   61 1   
    62   62   63 1   
    63   62   66 1   
    64   63   64 1   
    65   63   67 1   
    66   63   68 1   
    67   64   65 2   
    68   64   69 1   
    69   69   70 1   
    70   69   76 1   
    71   70   71 1   
    72   70   73 1   
    73   70   77 1   
    74   71   72 2   
    75   71   83 1   
    76   73   74 1   
    77   73   75 1   
    78   73   78 1   
    79   74   80 1   
    80   74   81 1   
    81   74   82 1   
    82   75   79 1   
    83   83   84 1   
    84   83   91 1   
    85   84   85 1   
    86   84   87 1   
    87   84   92 1   
    88   85   86 2   
    89   85  102 1   
    90   87   88 1   
    91   87   89 1   
    92   87   93 1   
    93   88   90 1   
    94   88   94 1   
    95   88   95 1   
    96   89   96 1   
    97   89   97 1   
    98   89   98 1   
    99   90   99 1   
   100   90  100 1   
   101   90  101 1   
   102  102  103 1   
   103  102  110 1   
   104  103  104 1   
   105  103  106 1   
   106  103  111 1   
   107  104  105 2   
   108  104  114 1   
   109  106  107 1   
   110  106  112 1   
   111  106  113 1   
   112  107  108 1   
   113  107  109 1   
   114  114  115 1   
   115  114  125 1   
   116  115  116 1   
   117  115  118 1   
   118  115  126 1   
   119  116  117 2   
   120  116  134 1   
   121  118  119 1   
   122  118  127 1   
   123  118  128 1   
   124  119  120 ar  
   125  119  121 ar  
   126  120  122 ar  
   127  120  129 1   
   128  121  123 ar  
   129  121  130 1   
   130  122  124 ar  
   131  122  131 1   
   132  123  124 ar  
   133  123  132 1   
   134  124  133 1   
   135  134  135 1   
   136  134  140 1   
   137  135  136 1   
   138  135  138 1   
   139  135  141 1   
   140  136  137 2   
   141  136  148 1   
   142  138  139 1   
   143  138  142 1   
   144  138  143 1   
   145  139  140 1   
   146  139  144 1   
   147  139  145 1   
   148  140  146 1   
   149  140  147 1   
   150  148  149 1   
   151  148  157 1   
   152  149  150 1   
   153  149  152 1   
   154  149  158 1   
   155  150  151 2   
   156  150  163 1   
   157  152  153 1   
   158  152  159 1   
   159  152  160 1   
   160  153  154 1   
   161  153  161 1   
   162  153  162 1   
   163  154  155 1   
   164  154  156 1   
   165  163  164 1   
   166  163  168 1   
   167  164  165 1   
   168  164  166 1   
   169  164  167 1   
   170  170  171 1   
   171  170  172 1   
   172  173  174 1   
   173  173  175 1   
@<TRIPOS>SUBSTRUCTURE
     1 MOL         1 TEMP              0 ****  ****    0 ROOT
