@<TRIPOS>MOLECULE
MOL
  176   174     1     0     0
SMALL
resp


@<TRIPOS>ATOM
      1 C1          1.8300    3.5860    4.6770 c3        1 MOL     -0.285305
      2 C2          0.9190    3.1860    3.5060 c         1 MOL      0.594774
      3 O1          1.5040    3.0410    2.4050 o         1 MOL     -0.533584
      4 H1          1.6180    2.9500    5.5360 hc        1 MOL      0.083663
      5 H2          2.8730    3.4630    4.3850 hc        1 MOL      0.083663
      6 H3          1.6470    4.6270    4.9420 hc        1 MOL      0.083663
      7 N1         -0.2710    2.8050    3.6830 n         1 MOL     -0.496179
      8 C3         -1.1480    2.1640    2.6520 c3        1 MOL      0.089396
      9 C4         -1.8250    3.3040    1.7740 c         1 MOL      0.441945
     10 O2         -3.0440    3.3710    1.7170 o         1 MOL     -0.473442
     11 C5         -2.1570    1.2610    3.3620 c3        1 MOL      0.001510
     12 C6         -3.1230    0.5320    2.3860 c         1 MOL      0.550732
     13 O3         -4.3300    0.7020    2.5640 o         1 MOL     -0.618612
     14 O4         -2.5610   -0.0700    1.4240 o         1 MOL     -0.618612
     15 H4         -0.6810    2.5650    4.5750 hn        1 MOL      0.311667
     16 H5         -0.6500    1.5720    1.8970 h1        1 MOL     -0.006273
     17 H6         -2.7070    1.8430    4.1030 hc        1 MOL      0.000810
     18 H7         -1.4930    0.6140    3.9320 hc        1 MOL      0.000810
     19 N2         -1.0020    4.2240    1.2640 n         1 MOL     -0.164591
     20 C7         -1.2510    5.4920    0.7470 c3        1 MOL     -0.229898
     21 C8         -2.1040    5.4760   -0.5930 c         1 MOL      0.438273
     22 O5         -2.4340    6.5310   -1.1200 o         1 MOL     -0.520403
     23 C9          0.0140    6.3070    0.5080 c3        1 MOL     -0.069882
     24 C10         0.8910    5.5270   -0.4570 c3        1 MOL      0.236365
     25 C11         1.9430    6.5220   -1.0660 c3        1 MOL     -0.172122
     26 C12         2.9430    5.7890   -2.0270 c3        1 MOL     -0.021680
     27 N3          2.3990    5.1440   -3.2530 n4        1 MOL     -0.341740
     28 H8         -0.0120    4.0160    1.3020 hn        1 MOL      0.149121
     29 H9         -1.8760    6.0130    1.4680 h1        1 MOL      0.145524
     30 H10         0.5450    6.6750    1.3890 hc        1 MOL      0.064649
     31 H11        -0.2800    7.2820    0.1120 hc        1 MOL      0.064649
     32 H12         0.2910    5.1340   -1.2790 hc        1 MOL     -0.028389
     33 H13         1.4090    4.7050    0.0370 hc        1 MOL     -0.028389
     34 H14         2.4280    6.9790   -0.1960 hc        1 MOL      0.071598
     35 H15         1.3820    7.3170   -1.5650 hc        1 MOL      0.071598
     36 H16         3.3080    4.9410   -1.4550 hx        1 MOL      0.112343
     37 H17         3.7910    6.4000   -2.3410 hx        1 MOL      0.112343
     38 H18         1.6960    4.4360   -3.1100 hn        1 MOL      0.322461
     39 H19         2.0150    5.8770   -3.8180 hn        1 MOL      0.322461
     40 H20         3.0530    4.6470   -3.8490 hn        1 MOL      0.322461
     41 N4         -2.4740    4.2970   -1.1230 n         1 MOL     -0.167368
     42 C13        -3.5200    4.1800   -2.1650 c3        1 MOL     -0.084671
     43 C14        -4.9640    4.0730   -1.5430 c         1 MOL      0.484958
     44 O6         -6.0190    4.4180   -2.1870 o         1 MOL     -0.570738
     45 C15        -3.2600    3.0320   -3.1560 c3        1 MOL     -0.090763
     46 C16        -2.7250    1.7360   -2.5860 c         1 MOL      0.674743
     47 O7         -3.2130    1.3830   -1.4680 o         1 MOL     -0.731251
     48 O8         -1.7480    1.2150   -3.0930 o         1 MOL     -0.731251
     49 H21        -2.1650    3.4920   -0.6070 hn        1 MOL      0.110494
     50 H22        -3.5000    5.0780   -2.7800 h1        1 MOL      0.093974
     51 H23        -2.5430    3.3620   -3.9040 hc        1 MOL      0.045246
     52 H24        -4.1240    2.7770   -3.7660 hc        1 MOL      0.045246
     53 N5         -5.0420    3.4060   -0.4210 n         1 MOL     -0.340529
     54 C17        -6.3090    3.0130    0.2180 c3        1 MOL      0.006655
     55 C18        -6.7210    1.4710    0.0540 c         1 MOL      0.493736
     56 O9         -7.7100    1.0460    0.6650 o         1 MOL     -0.559759
     57 H25        -4.1780    3.1880    0.0340 hn        1 MOL      0.308222
     58 H26        -7.1480    3.6290   -0.1210 h1        1 MOL      0.078265
     59 H27        -6.3280    3.2690    1.2730 h1        1 MOL      0.078265
     60 N6         -5.9160    0.6550   -0.6600 n         1 MOL     -0.352320
     61 C19        -6.3310   -0.7430   -1.0930 c3        1 MOL     -0.024443
     62 C20        -6.2880   -1.7490    0.0360 c         1 MOL      0.386236
     63 O10        -6.8160   -2.8550   -0.1500 o         1 MOL     -0.549125
     64 C21        -5.5990   -1.1670   -2.3850 c3        1 MOL     -0.244671
     65 C22        -4.2240   -1.6960   -2.2390 c         1 MOL      0.680962
     66 N7         -3.6490   -2.1240   -3.3330 n         1 MOL     -0.659026
     67 O11        -3.5710   -1.6230   -1.2040 o         1 MOL     -0.580705
     68 H28        -5.0260    1.0030   -1.0050 hn        1 MOL      0.254057
     69 H29        -7.3730   -0.7410   -1.3960 h1        1 MOL      0.120881
     70 H30        -5.4580   -0.2640   -2.9740 hc        1 MOL      0.093992
     71 H31        -6.2040   -1.9000   -2.9150 hc        1 MOL      0.093992
     72 H32        -4.1880   -2.0650   -4.1860 hn        1 MOL      0.306285
     73 H33        -2.8690   -2.7550   -3.2590 hn        1 MOL      0.306285
     74 N8         -5.7280   -1.4520    1.1890 n         1 MOL      0.050913
     75 C23        -5.7880   -2.1330    2.4010 c3        1 MOL     -0.372279
     76 C24        -4.5900   -3.0410    2.5670 c         1 MOL      0.549255
     77 O12        -4.5420   -3.7570    3.5890 o         1 MOL     -0.585777
     78 H34        -5.2270   -0.5850    1.2090 hn        1 MOL      0.210422
     79 H35        -6.6390   -2.8120    2.4880 h1        1 MOL      0.160152
     80 H36        -5.7060   -1.4240    3.2400 h1        1 MOL      0.160152
     81 N9         -3.5610   -3.1190    1.6880 n         1 MOL     -0.150372
     82 C25        -2.3230   -3.9260    1.8640 c3        1 MOL      0.062696
     83 C26        -1.0470   -3.1190    1.5240 c         1 MOL      0.499098
     84 O13        -0.8470   -2.5970    0.4270 o         1 MOL     -0.659181
     85 C27        -2.5240   -5.2880    1.1850 c3        1 MOL     -0.009027
     86 C28        -2.9830   -5.1540   -0.2540 ca        1 MOL      0.061943
     87 C29        -2.0510   -4.9400   -1.2700 ca        1 MOL     -0.224065
     88 C30        -4.3180   -5.3400   -0.5370 ca        1 MOL     -0.224065
     89 C31        -2.5100   -4.9540   -2.6410 ca        1 MOL     -0.203345
     90 C32        -4.7870   -5.3690   -1.8650 ca        1 MOL     -0.203345
     91 C33        -3.8610   -5.2100   -2.9280 ca        1 MOL      0.304157
     92 O14        -4.3510   -5.3320   -4.1890 oh        1 MOL     -0.570606
     93 H37        -3.5010   -2.4100    0.9780 hn        1 MOL      0.053289
     94 H38        -2.3860   -4.2350    2.9050 h1        1 MOL      0.035086
     95 H39        -3.2250   -5.8380    1.8230 hc        1 MOL      0.044305
     96 H40        -1.6090   -5.8670    1.2920 hc        1 MOL      0.044305
     97 H41        -1.0400   -4.6750   -0.9990 ha        1 MOL      0.174198
     98 H42        -5.0290   -5.3550    0.2740 ha        1 MOL      0.174198
     99 H43        -1.8580   -4.9090   -3.4880 ha        1 MOL      0.122872
    100 H44        -5.8080   -5.6680   -2.0640 ha        1 MOL      0.122872
    101 H45        -5.2810   -5.5600   -4.1390 ho        1 MOL      0.426827
    102 N10        -0.0680   -3.0390    2.4340 n         1 MOL     -0.524902
    103 C34         1.2390   -2.4220    2.1920 c3        1 MOL     -0.047648
    104 C35         2.0900   -3.2450    1.2210 c         1 MOL      0.805153
    105 O15         2.3620   -4.4330    1.4900 o         1 MOL     -0.609603
    106 C36         1.9300   -2.1260    3.5220 c3        1 MOL      0.067782
    107 C37         1.2400   -1.1030    4.4040 c3        1 MOL      0.186968
    108 C38         3.4080   -1.5710    3.3360 c3        1 MOL     -0.276116
    109 C39         1.8910   -1.0140    5.8110 c3        1 MOL     -0.288591
    110 H46        -0.2130   -3.3600    3.3830 hn        1 MOL      0.311670
    111 H47         0.9980   -1.4610    1.7410 h1        1 MOL      0.073525
    112 H48         1.9920   -3.0580    4.0910 hc        1 MOL      0.023346
    113 H49         0.2110   -1.4210    4.5910 hc        1 MOL     -0.021600
    114 H50         1.1260   -0.1690    3.8510 hc        1 MOL     -0.021600
    115 H51         3.9360   -1.5360    4.2860 hc        1 MOL      0.068572
    116 H52         3.9660   -2.2760    2.7120 hc        1 MOL      0.068572
    117 H53         3.3070   -0.5540    2.9680 hc        1 MOL      0.068572
    118 H54         2.8670   -0.5320    5.7830 hc        1 MOL      0.068540
    119 H55         1.2060   -0.5170    6.5010 hc        1 MOL      0.068540
    120 H56         2.0070   -2.0460    6.1590 hc        1 MOL      0.068540
    121 N11         2.6970   -2.6190    0.2470 n         1 MOL     -0.521923
    122 C40         3.7510   -3.2010   -0.5970 c3        1 MOL      0.138727
    123 C41         5.2090   -2.8370   -0.1570 c         1 MOL      0.394162
    124 O16         5.4150   -2.0590    0.7550 o         1 MOL     -0.422941
    125 C42         3.6610   -2.7220   -2.0750 c3        1 MOL     -0.222535
    126 O17         4.1220   -1.4340   -2.2950 oh        1 MOL     -0.365996
    127 H57         2.4630   -1.6740   -0.0230 hn        1 MOL      0.357952
    128 H58         3.6910   -4.2950   -0.5510 h1        1 MOL      0.049561
    129 H59         2.5790   -2.6800   -2.2350 h1        1 MOL      0.090133
    130 H60         4.2020   -3.3700   -2.7500 h1        1 MOL      0.090133
    131 H61         3.4970   -1.0830   -2.9340 ho        1 MOL      0.381942
    132 N12         6.2140   -3.3810   -0.7660 n         1 MOL     -0.299192
    133 C43         7.6630   -3.1610   -0.4070 c3        1 MOL      0.099400
    134 C44         8.0790   -1.7450   -0.9320 c         1 MOL      0.441653
    135 O18         8.9450   -1.0600   -0.3660 o         1 MOL     -0.505560
    136 C45         8.4950   -4.3060   -0.8740 c3        1 MOL     -0.258167
    137 H62         5.9780   -4.2090   -1.3000 hn        1 MOL      0.247013
    138 H63         7.8210   -3.1600    0.6740 h1        1 MOL      0.096756
    139 H64         8.2040   -5.1800   -0.2820 hc        1 MOL      0.082936
    140 H65         8.2650   -4.4200   -1.9310 hc        1 MOL      0.082936
    141 H66         9.5660   -4.1170   -0.7860 hc        1 MOL      0.082936
    142 N13         7.4510   -1.3700   -2.0350 n         1 MOL     -0.250051
    143 C46         7.6980   -0.0960   -2.7050 c3        1 MOL     -0.029138
    144 C47         7.0290    1.0830   -1.9550 c         1 MOL      0.436879
    145 O19         7.4980    2.2270   -2.0270 o         1 MOL     -0.530794
    146 C48         7.0390   -0.1770   -4.0710 c3        1 MOL     -0.220897
    147 H67         6.7310   -1.9740   -2.3990 hn        1 MOL      0.222226
    148 H68         8.7730    0.0490   -2.7150 h1        1 MOL      0.135284
    149 H69         7.3480   -0.9790   -4.7340 hc        1 MOL      0.070292
    150 H70         5.9630   -0.2890   -3.9620 hc        1 MOL      0.070292
    151 H71         7.1240    0.7800   -4.5960 hc        1 MOL      0.070292
    152 N14         5.9760    0.8730   -1.1070 n         1 MOL      0.013726
    153 C49         5.2520    1.7860   -0.2360 c3        1 MOL     -0.160081
    154 C50         5.8140    1.7450    1.1880 c         1 MOL      0.529431
    155 O20         5.7900    2.8060    1.8260 o         1 MOL     -0.580436
    156 C51         3.8210    1.3140   -0.0190 c3        1 MOL      0.283024
    157 C52         2.8090    1.5080   -1.1220 c3        1 MOL     -0.081345
    158 C53         1.4610    0.8880   -0.7040 c         1 MOL      0.717428
    159 O21         1.3200   -0.2980   -0.4620 o         1 MOL     -0.761865
    160 O22         0.4740    1.6970   -0.7760 o         1 MOL     -0.761865
    161 H72         5.6130   -0.0710   -1.1280 hn        1 MOL     -0.198168
    162 H73         5.3410    2.8000   -0.6440 h1        1 MOL      0.062033
    163 H74         3.5160    1.7990    0.9130 hc        1 MOL     -0.023277
    164 H75         3.8930    0.2520    0.2340 hc        1 MOL     -0.023277
    165 H76         3.1650    1.0850   -2.0620 hc        1 MOL     -0.028939
    166 H77         2.6990    2.5660   -1.3500 hc        1 MOL     -0.028939
    167 N15         6.3580    0.6540    1.6740 n         1 MOL     -0.120877
    168 C54         7.1450    0.5880    2.8440 c3        1 MOL     -0.190612
    169 H78         6.5460    0.1910    3.6630 h1        1 MOL      0.088614
    170 H79         8.0010   -0.0650    2.6700 h1        1 MOL      0.088614
    171 H80         7.4960    1.5880    3.1020 h1        1 MOL      0.088614
    172 H81         6.3880   -0.1580    1.0720 hn        1 MOL      0.143088
    173 Ca1        -1.2540   -0.2980   -0.8660 Ca        1 MOL      1.734714
    174 O23        -0.6870   -2.0730   -3.0330 oh        1 MOL     -0.789022
    175 H82        -0.4060   -2.9930   -3.0010 ho        1 MOL      0.398728
    176 H83        -0.4790   -1.7810   -3.9170 ho        1 MOL      0.398728
@<TRIPOS>BOND
     1    1    2 1   
     2    1    4 1   
     3    1    5 1   
     4    1    6 1   
     5    2    3 2   
     6    2    7 1   
     7    7    8 1   
     8    7   15 1   
     9    8    9 1   
    10    8   11 1   
    11    8   16 1   
    12    9   10 2   
    13    9   19 1   
    14   11   12 1   
    15   11   17 1   
    16   11   18 1   
    17   12   13 1   
    18   12   14 1   
    19   19   20 1   
    20   19   28 1   
    21   20   21 1   
    22   20   23 1   
    23   20   29 1   
    24   21   22 2   
    25   21   41 1   
    26   23   24 1   
    27   23   30 1   
    28   23   31 1   
    29   24   25 1   
    30   24   32 1   
    31   24   33 1   
    32   25   26 1   
    33   25   34 1   
    34   25   35 1   
    35   26   27 1   
    36   26   36 1   
    37   26   37 1   
    38   27   38 1   
    39   27   39 1   
    40   27   40 1   
    41   41   42 1   
    42   41   49 1   
    43   42   43 1   
    44   42   45 1   
    45   42   50 1   
    46   43   44 2   
    47   43   53 1   
    48   45   46 1   
    49   45   51 1   
    50   45   52 1   
    51   46   47 1   
    52   46   48 1   
    53   53   54 1   
    54   53   57 1   
    55   54   55 1   
    56   54   58 1   
    57   54   59 1   
    58   55   56 2   
    59   55   60 1   
    60   60   61 1   
    61   60   68 1   
    62   61   62 1   
    63   61   64 1   
    64   61   69 1   
    65   62   63 2   
    66   62   74 1   
    67   64   65 1   
    68   64   70 1   
    69   64   71 1   
    70   65   66 1   
    71   65   67 2   
    72   66   72 1   
    73   66   73 1   
    74   74   75 1   
    75   74   78 1   
    76   75   76 1   
    77   75   79 1   
    78   75   80 1   
    79   76   77 2   
    80   76   81 1   
    81   81   82 1   
    82   81   93 1   
    83   82   83 1   
    84   82   85 1   
    85   82   94 1   
    86   83   84 2   
    87   83  102 1   
    88   85   86 1   
    89   85   95 1   
    90   85   96 1   
    91   86   87 ar  
    92   86   88 ar  
    93   87   89 ar  
    94   87   97 1   
    95   88   90 ar  
    96   88   98 1   
    97   89   91 ar  
    98   89   99 1   
    99   90   91 ar  
   100   90  100 1   
   101   91   92 1   
   102   92  101 1   
   103  102  103 1   
   104  102  110 1   
   105  103  104 1   
   106  103  106 1   
   107  103  111 1   
   108  104  105 2   
   109  104  121 1   
   110  106  107 1   
   111  106  108 1   
   112  106  112 1   
   113  107  109 1   
   114  107  113 1   
   115  107  114 1   
   116  108  115 1   
   117  108  116 1   
   118  108  117 1   
   119  109  118 1   
   120  109  119 1   
   121  109  120 1   
   122  121  122 1   
   123  121  127 1   
   124  122  123 1   
   125  122  125 1   
   126  122  128 1   
   127  123  124 2   
   128  123  132 1   
   129  125  126 1   
   130  125  129 1   
   131  125  130 1   
   132  126  131 1   
   133  132  133 1   
   134  132  137 1   
   135  133  134 1   
   136  133  136 1   
   137  133  138 1   
   138  134  135 2   
   139  134  142 1   
   140  136  139 1   
   141  136  140 1   
   142  136  141 1   
   143  142  143 1   
   144  142  147 1   
   145  143  144 1   
   146  143  146 1   
   147  143  148 1   
   148  144  145 2   
   149  144  152 1   
   150  146  149 1   
   151  146  150 1   
   152  146  151 1   
   153  152  153 1   
   154  152  161 1   
   155  153  154 1   
   156  153  156 1   
   157  153  162 1   
   158  154  155 2   
   159  154  167 1   
   160  156  157 1   
   161  156  163 1   
   162  156  164 1   
   163  157  158 1   
   164  157  165 1   
   165  157  166 1   
   166  158  159 1   
   167  158  160 1   
   168  167  168 1   
   169  167  172 1   
   170  168  169 1   
   171  168  170 1   
   172  168  171 1   
   173  174  175 1   
   174  174  176 1   
@<TRIPOS>SUBSTRUCTURE
     1 MOL         1 TEMP              0 ****  ****    0 ROOT
