@<TRIPOS>MOLECULE
MOL
  175   173     1     0     0
SMALL
resp


@<TRIPOS>ATOM
      1 C1          0.4660    4.1390    5.7630 c3        1 MOL     -0.385477
      2 C2          0.0600    4.0990    4.2550 c         1 MOL      0.711228
      3 O1          0.8730    4.4410    3.3710 o         1 MOL     -0.560802
      4 H1          1.3120    4.8140    5.8940 hc        1 MOL      0.096281
      5 H2         -0.3760    4.4940    6.3580 hc        1 MOL      0.096281
      6 H3          0.7480    3.1390    6.0910 hc        1 MOL      0.096281
      7 N1         -1.2040    3.9680    3.9180 n         1 MOL     -0.718081
      8 C3         -1.7250    3.8050    2.5120 c3        1 MOL      0.375613
      9 C4         -1.9620    5.0450    1.6570 c         1 MOL      0.599207
     10 O2         -2.2450    6.1660    2.0970 o         1 MOL     -0.566484
     11 C5         -3.0880    3.0850    2.6590 c3        1 MOL     -0.318044
     12 C6         -3.8880    2.8190    1.3970 c         1 MOL      0.700438
     13 O3         -4.9310    3.4750    1.1810 o         1 MOL     -0.625023
     14 O4         -3.4430    1.9590    0.6120 o         1 MOL     -0.625023
     15 H4         -1.7430    4.1480    4.7420 hn        1 MOL      0.335802
     16 H5         -1.0950    3.1590    1.9120 h1        1 MOL      0.030346
     17 H6         -3.6520    3.6170    3.4260 hc        1 MOL      0.044872
     18 H7         -2.9520    2.0520    2.9810 hc        1 MOL      0.044872
     19 N2         -2.0360    4.7710    0.3450 n         1 MOL     -0.708742
     20 C7         -2.4730    5.7910   -0.6080 c3        1 MOL      0.407538
     21 C8         -3.4420    5.2230   -1.7220 c         1 MOL      0.399827
     22 O5         -3.8210    5.9750   -2.6140 o         1 MOL     -0.579663
     23 C9         -1.2090    6.5290   -1.1930 c3        1 MOL     -0.359151
     24 H8         -1.7270    3.9190   -0.0800 hn        1 MOL      0.374530
     25 H9         -3.1160    6.5780   -0.2220 h1        1 MOL      0.019459
     26 H10        -1.5000    7.2050   -1.9880 hc        1 MOL      0.083821
     27 H11        -0.6900    7.0760   -0.4140 hc        1 MOL      0.083821
     28 H12        -0.6460    5.6890   -1.6100 hc        1 MOL      0.083821
     29 N3         -3.9240    3.9410   -1.7670 n         1 MOL     -0.218986
     30 C10        -4.8460    3.3220   -2.8270 c3        1 MOL      0.023788
     31 C11        -5.9740    2.5310   -2.2700 c         1 MOL      0.368743
     32 O6         -6.8350    2.2280   -3.0710 o         1 MOL     -0.589200
     33 C12        -3.9850    2.4900   -3.8150 c3        1 MOL     -0.106168
     34 C13        -2.9970    1.5190   -3.1580 c         1 MOL      0.608112
     35 O7         -3.3560    1.0040   -2.0710 o         1 MOL     -0.671796
     36 O8         -1.9210    1.2250   -3.6970 o         1 MOL     -0.671796
     37 H13        -3.6230    3.2940   -1.0560 hn        1 MOL      0.195665
     38 H14        -5.3240    4.1750   -3.3190 h1        1 MOL      0.086981
     39 H15        -3.4270    3.1900   -4.4500 hc        1 MOL      0.032092
     40 H16        -4.6000    1.9610   -4.5450 hc        1 MOL      0.032092
     41 N4         -6.0320    2.1860   -0.9740 n         1 MOL      0.150999
     42 C14        -7.0540    1.5090   -0.2610 c3        1 MOL     -0.273816
     43 C15        -7.1770    0.0290   -0.6740 c         1 MOL      0.521095
     44 O9         -8.2080   -0.6150   -0.4230 o         1 MOL     -0.605247
     45 H17        -5.2700    2.6110   -0.4640 hn        1 MOL     -0.111931
     46 H18        -7.9930    2.0250   -0.4240 h1        1 MOL      0.112010
     47 H19        -6.7430    1.6090    0.7770 h1        1 MOL      0.112010
     48 N5         -6.1950   -0.5220   -1.4280 n         1 MOL     -0.189099
     49 C16        -6.2010   -1.9080   -2.0100 c3        1 MOL     -0.045689
     50 C17        -6.2280   -3.0370   -0.9350 c         1 MOL      0.462313
     51 O10        -6.1700   -4.1760   -1.3440 o         1 MOL     -0.522704
     52 C18        -5.1120   -2.1040   -3.1140 c3        1 MOL     -0.109716
     53 C19        -3.7140   -2.1930   -2.6210 c         1 MOL      0.646881
     54 N6         -2.7740   -2.3590   -3.4540 n         1 MOL     -0.659399
     55 O11        -3.5080   -2.1870   -1.4210 o         1 MOL     -0.591878
     56 H20        -5.2750   -0.0900   -1.4370 hn        1 MOL      0.123090
     57 H21        -7.1640   -2.0610   -2.4990 h1        1 MOL      0.095626
     58 H22        -5.1120   -1.2600   -3.8060 hc        1 MOL      0.042373
     59 H23        -5.2530   -2.9930   -3.7330 hc        1 MOL      0.042373
     60 H24        -2.9270   -2.2040   -4.4300 hn        1 MOL      0.352924
     61 H25        -1.8770   -2.4120   -2.9920 hn        1 MOL      0.352924
     62 N7         -6.1190   -2.8490    0.3930 n         1 MOL     -0.196032
     63 C20        -6.1530   -3.9250    1.3950 c3        1 MOL     -0.361277
     64 C21        -4.8740   -4.7790    1.5720 c         1 MOL      0.527188
     65 O12        -4.8880   -5.8180    2.2470 o         1 MOL     -0.569099
     66 H26        -6.2860   -1.8980    0.6820 hn        1 MOL      0.238696
     67 H27        -6.9290   -4.6550    1.2160 h1        1 MOL      0.142086
     68 H28        -6.4060   -3.4490    2.3430 h1        1 MOL      0.142086
     69 N8         -3.7370   -4.4290    0.9870 n         1 MOL     -0.146736
     70 C22        -2.3820   -4.8680    1.4020 c3        1 MOL     -0.162859
     71 C23        -1.3940   -3.6910    1.6070 c         1 MOL      0.461507
     72 O13        -1.6530   -2.4940    1.3010 o         1 MOL     -0.592331
     73 C24        -1.7570   -5.7950    0.3320 c3        1 MOL      0.412764
     74 C25        -2.4060   -7.1390    0.0580 c3        1 MOL     -0.552633
     75 O14        -1.8680   -5.1490   -0.9160 oh        1 MOL     -0.566102
     76 H29        -3.7770   -3.6910    0.2970 hn        1 MOL      0.217025
     77 H30        -2.5220   -5.4350    2.3220 h1        1 MOL      0.094222
     78 H31        -0.6870   -5.9270    0.5240 h1        1 MOL      0.003663
     79 H32        -1.0130   -4.7350   -1.0330 ho        1 MOL      0.376759
     80 H33        -1.8340   -7.7900   -0.6080 hc        1 MOL      0.141342
     81 H34        -2.5990   -7.6220    1.0210 hc        1 MOL      0.141342
     82 H35        -3.4480   -7.0420   -0.2480 hc        1 MOL      0.141342
     83 N9         -0.2330   -3.9860    2.1650 n         1 MOL     -0.412760
     84 C26         1.0010   -3.0670    2.0450 c3        1 MOL      0.171982
     85 C27         1.6290   -3.2910    0.7200 c         1 MOL      0.331144
     86 O15         1.9060   -4.3690    0.3270 o         1 MOL     -0.563301
     87 C28         2.0620   -3.2030    3.2240 c3        1 MOL     -0.013885
     88 C29         1.4150   -3.1970    4.6090 c3        1 MOL     -0.000471
     89 C30         3.1850   -2.2510    3.2120 c3        1 MOL     -0.075214
     90 C31         0.4700   -1.9460    4.6810 c3        1 MOL     -0.201254
     91 H36        -0.0210   -4.9650    2.2900 hn        1 MOL      0.247078
     92 H37         0.6690   -2.0370    2.1820 h1        1 MOL      0.243264
     93 H38         2.4580   -4.2220    3.2300 hc        1 MOL     -0.000365
     94 H39         2.1040   -3.2040    5.4500 hc        1 MOL      0.011030
     95 H40         0.7890   -4.0860    4.7320 hc        1 MOL      0.011030
     96 H41         3.9070   -2.5240    3.9750 hc        1 MOL      0.014755
     97 H42         3.7760   -2.3830    2.3010 hc        1 MOL      0.014755
     98 H43         2.8990   -1.2070    3.1030 hc        1 MOL      0.014755
     99 H44         0.7800   -1.0830    4.1050 hc        1 MOL      0.036894
    100 H45        -0.4990   -2.2170    4.2750 hc        1 MOL      0.036894
    101 H46         0.2320   -1.7200    5.7240 hc        1 MOL      0.036894
    102 N10         1.7660   -2.1920   -0.0060 n         1 MOL      0.066470
    103 C32         2.5780   -2.0880   -1.2630 c3        1 MOL     -0.002892
    104 C33         3.9790   -1.5590   -0.9830 c         1 MOL      0.519111
    105 O16         4.3180   -1.3400    0.1420 o         1 MOL     -0.406106
    106 C34         1.7770   -1.2650   -2.2860 c3        1 MOL     -0.174179
    107 C35         0.4040   -1.8090   -2.4210 c         1 MOL      0.766782
    108 O17        -0.5140   -1.5120   -1.6490 o         1 MOL     -0.709731
    109 O18         0.0740   -2.4690   -3.4460 o         1 MOL     -0.709731
    110 H47         1.3230   -1.3460    0.3120 hn        1 MOL     -0.175058
    111 H48         2.6820   -3.0700   -1.7270 h1        1 MOL      0.068323
    112 H49         2.2560   -1.3560   -3.2650 hc        1 MOL      0.054471
    113 H50         1.7760   -0.2150   -2.0060 hc        1 MOL      0.054471
    114 N11         4.9490   -1.5450   -1.9310 n         1 MOL     -0.717671
    115 C36         6.3120   -1.2170   -1.5590 c3        1 MOL      0.537881
    116 C37         6.5130    0.2690   -1.0540 c         1 MOL      0.298753
    117 O19         7.1830    0.4400   -0.0140 o         1 MOL     -0.492212
    118 C38         7.3400   -1.4920   -2.6920 c3        1 MOL     -0.129919
    119 C39         8.8460   -1.3390   -2.5170 ca        1 MOL      0.101814
    120 C40         9.4250   -1.8320   -1.3650 ca        1 MOL     -0.211314
    121 C41         9.6730   -0.6140   -3.4090 ca        1 MOL     -0.211314
    122 C42        10.7490   -1.7060   -1.0430 ca        1 MOL     -0.021162
    123 C43        11.0440   -0.4730   -3.1190 ca        1 MOL     -0.021162
    124 C44        11.6220   -1.0210   -1.9300 ca        1 MOL     -0.216509
    125 H51         4.8010   -1.9300   -2.8520 hn        1 MOL      0.331441
    126 H52         6.5660   -1.8410   -0.7110 h1        1 MOL     -0.026654
    127 H53         6.9990   -0.9990   -3.5990 hc        1 MOL      0.021968
    128 H54         7.1400   -2.5340   -2.9320 hc        1 MOL      0.021968
    129 H55         8.8610   -2.4800   -0.7180 ha        1 MOL      0.121108
    130 H56         9.2810   -0.1520   -4.2990 ha        1 MOL      0.121108
    131 H57        11.0900   -2.2090   -0.1580 ha        1 MOL      0.089537
    132 H58        11.6590    0.0640   -3.8330 ha        1 MOL      0.089537
    133 H59        12.6700   -0.9450   -1.6880 ha        1 MOL      0.127339
    134 N12         5.8220    1.2900   -1.6620 n         1 MOL     -0.188224
    135 C45         5.8810    2.7130   -1.1180 c3        1 MOL      0.103512
    136 C46         5.3450    2.7820    0.2810 c         1 MOL      0.250996
    137 O20         5.7260    3.6760    0.9940 o         1 MOL     -0.497944
    138 C47         4.8940    3.4360   -2.0860 c3        1 MOL     -0.202702
    139 C48         5.1120    2.7620   -3.4050 c3        1 MOL     -0.016061
    140 C49         5.0990    1.2680   -2.9460 c3        1 MOL      0.028905
    141 H60         6.9030    3.0840   -1.1520 h1        1 MOL      0.071668
    142 H61         3.8340    3.2690   -1.8560 hc        1 MOL      0.100946
    143 H62         5.0330    4.5030   -1.9280 hc        1 MOL      0.100946
    144 H63         4.3600    2.9670   -4.1560 hc        1 MOL      0.024844
    145 H64         6.1130    2.9600   -3.7960 hc        1 MOL      0.024844
    146 H65         4.0800    0.9430   -2.7580 h1        1 MOL      0.035340
    147 H66         5.5540    0.6250   -3.6970 h1        1 MOL      0.035340
    148 N13         4.4920    1.8680    0.6580 n         1 MOL      0.019288
    149 C50         3.8900    1.8060    1.9660 c3        1 MOL     -0.047939
    150 C51         4.7020    1.0300    2.9770 c         1 MOL      0.373066
    151 O21         4.9430    1.4580    4.1700 o         1 MOL     -0.575338
    152 C52         2.5040    1.1890    1.8190 c3        1 MOL      0.179547
    153 C53         1.5690    2.0360    1.0290 c3        1 MOL      0.161647
    154 C54         0.3730    1.2590    0.5790 c         1 MOL      0.839769
    155 O22         0.3380    0.0660    0.8840 o         1 MOL     -0.808981
    156 O23        -0.6250    1.8060    0.0540 o         1 MOL     -0.808981
    157 H67         4.2920    1.1990   -0.0770 hn        1 MOL      0.115163
    158 H68         3.7800    2.8110    2.3750 h1        1 MOL      0.074030
    159 H69         2.1240    1.1540    2.8320 hc        1 MOL     -0.034735
    160 H70         2.6350    0.2290    1.3180 hc        1 MOL     -0.034735
    161 H71         2.0940    2.3200    0.1080 hc        1 MOL     -0.099342
    162 H72         1.2060    2.8800    1.6170 hc        1 MOL     -0.099342
    163 N14         5.3400   -0.0550    2.5920 n         1 MOL     -0.001627
    164 C55         6.3780   -0.7210    3.3650 c3        1 MOL     -0.228936
    165 H73         7.2670   -0.8470    2.7470 h1        1 MOL      0.083581
    166 H74         6.6260   -0.1160    4.2380 h1        1 MOL      0.083581
    167 H75         6.0210   -1.6980    3.6890 h1        1 MOL      0.083581
    168 H76         5.1310   -0.5190    1.7140 hn        1 MOL      0.098384
    169 Ca1        -2.1330   -0.2420   -0.1800 Ca        1 MOL      1.699292
    170 O24        -4.3340   -0.7460    1.6950 oh        1 MOL     -0.774217
    171 H77        -5.0950   -0.8820    2.2710 ho        1 MOL      0.377548
    172 H78        -3.5980   -0.6280    2.2850 ho        1 MOL      0.377548
    173 O25        -1.9760   -0.1030    2.7400 oh        1 MOL     -0.774217
    174 H79        -1.0560   -0.3590    2.8010 ho        1 MOL      0.377548
    175 H80        -2.1830    0.2460    3.6050 ho        1 MOL      0.377548
@<TRIPOS>BOND
     1    1    2 1   
     2    1    4 1   
     3    1    5 1   
     4    1    6 1   
     5    2    3 2   
     6    2    7 1   
     7    7    8 1   
     8    7   15 1   
     9    8    9 1   
    10    8   11 1   
    11    8   16 1   
    12    9   10 2   
    13    9   19 1   
    14   11   12 1   
    15   11   17 1   
    16   11   18 1   
    17   12   13 1   
    18   12   14 1   
    19   19   20 1   
    20   19   24 1   
    21   20   21 1   
    22   20   23 1   
    23   20   25 1   
    24   21   22 2   
    25   21   29 1   
    26   23   26 1   
    27   23   27 1   
    28   23   28 1   
    29   29   30 1   
    30   29   37 1   
    31   30   31 1   
    32   30   33 1   
    33   30   38 1   
    34   31   32 2   
    35   31   41 1   
    36   33   34 1   
    37   33   39 1   
    38   33   40 1   
    39   34   35 1   
    40   34   36 1   
    41   41   42 1   
    42   41   45 1   
    43   42   43 1   
    44   42   46 1   
    45   42   47 1   
    46   43   44 2   
    47   43   48 1   
    48   48   49 1   
    49   48   56 1   
    50   49   50 1   
    51   49   52 1   
    52   49   57 1   
    53   50   51 2   
    54   50   62 1   
    55   52   53 1   
    56   52   58 1   
    57   52   59 1   
    58   53   54 1   
    59   53   55 2   
    60   54   60 1   
    61   54   61 1   
    62   62   63 1   
    63   62   66 1   
    64   63   64 1   
    65   63   67 1   
    66   63   68 1   
    67   64   65 2   
    68   64   69 1   
    69   69   70 1   
    70   69   76 1   
    71   70   71 1   
    72   70   73 1   
    73   70   77 1   
    74   71   72 2   
    75   71   83 1   
    76   73   74 1   
    77   73   75 1   
    78   73   78 1   
    79   74   80 1   
    80   74   81 1   
    81   74   82 1   
    82   75   79 1   
    83   83   84 1   
    84   83   91 1   
    85   84   85 1   
    86   84   87 1   
    87   84   92 1   
    88   85   86 2   
    89   85  102 1   
    90   87   88 1   
    91   87   89 1   
    92   87   93 1   
    93   88   90 1   
    94   88   94 1   
    95   88   95 1   
    96   89   96 1   
    97   89   97 1   
    98   89   98 1   
    99   90   99 1   
   100   90  100 1   
   101   90  101 1   
   102  102  103 1   
   103  102  110 1   
   104  103  104 1   
   105  103  106 1   
   106  103  111 1   
   107  104  105 2   
   108  104  114 1   
   109  106  107 1   
   110  106  112 1   
   111  106  113 1   
   112  107  108 1   
   113  107  109 1   
   114  114  115 1   
   115  114  125 1   
   116  115  116 1   
   117  115  118 1   
   118  115  126 1   
   119  116  117 2   
   120  116  134 1   
   121  118  119 1   
   122  118  127 1   
   123  118  128 1   
   124  119  120 ar  
   125  119  121 ar  
   126  120  122 ar  
   127  120  129 1   
   128  121  123 ar  
   129  121  130 1   
   130  122  124 ar  
   131  122  131 1   
   132  123  124 ar  
   133  123  132 1   
   134  124  133 1   
   135  134  135 1   
   136  134  140 1   
   137  135  136 1   
   138  135  138 1   
   139  135  141 1   
   140  136  137 2   
   141  136  148 1   
   142  138  139 1   
   143  138  142 1   
   144  138  143 1   
   145  139  140 1   
   146  139  144 1   
   147  139  145 1   
   148  140  146 1   
   149  140  147 1   
   150  148  149 1   
   151  148  157 1   
   152  149  150 1   
   153  149  152 1   
   154  149  158 1   
   155  150  151 2   
   156  150  163 1   
   157  152  153 1   
   158  152  159 1   
   159  152  160 1   
   160  153  154 1   
   161  153  161 1   
   162  153  162 1   
   163  154  155 1   
   164  154  156 1   
   165  163  164 1   
   166  163  168 1   
   167  164  165 1   
   168  164  166 1   
   169  164  167 1   
   170  170  171 1   
   171  170  172 1   
   172  173  174 1   
   173  173  175 1   
@<TRIPOS>SUBSTRUCTURE
     1 MOL         1 TEMP              0 ****  ****    0 ROOT
