@<TRIPOS>MOLECULE
MOL
  189   185     1     0     0
SMALL
resp


@<TRIPOS>ATOM
      1 C1         -0.3910    0.8730    6.7250 c3        1 MOL     -0.295411
      2 C2         -0.3980    1.0530    5.1740 c         1 MOL      0.716188
      3 O1          0.5060    1.5970    4.5970 o         1 MOL     -0.605717
      4 H1         -1.3890    0.5940    7.0620 hc        1 MOL      0.071980
      5 H2          0.3170    0.0910    6.9970 hc        1 MOL      0.071980
      6 H3         -0.0970    1.8100    7.1980 hc        1 MOL      0.071980
      7 N1         -1.5080    0.6760    4.5570 n         1 MOL     -0.529115
      8 C3         -1.8450    0.8680    3.1480 c3        1 MOL      0.091008
      9 C4         -2.0350    2.3810    2.9520 c         1 MOL      0.635201
     10 O2         -2.8620    2.9420    3.6610 o         1 MOL     -0.610229
     11 C5         -3.1750    0.0540    2.8770 c3        1 MOL     -0.275389
     12 C6         -3.7100    0.0930    1.4730 c         1 MOL      0.837662
     13 O3         -4.5610   -0.6940    1.1340 o         1 MOL     -0.648469
     14 O4         -3.2720    0.9260    0.7020 o         1 MOL     -0.648469
     15 H4         -2.2990    0.4350    5.1340 hn        1 MOL      0.311968
     16 H5         -1.0230    0.5630    2.5030 h1        1 MOL     -0.018275
     17 H6         -3.9490    0.4480    3.5420 hc        1 MOL      0.056614
     18 H7         -2.8750   -0.9480    3.1700 hc        1 MOL      0.056614
     19 N2         -1.3720    3.0420    2.0440 n         1 MOL     -0.147030
     20 C7         -1.3580    4.5250    1.8610 c3        1 MOL     -0.301626
     21 C8         -2.3910    5.0970    0.8400 c         1 MOL      0.679600
     22 O5         -2.6980    6.2740    0.8740 o         1 MOL     -0.593296
     23 C9          0.0900    5.0020    1.5290 c3        1 MOL      0.006428
     24 C10         0.4980    4.6510    0.1260 c3        1 MOL     -0.181638
     25 C11         1.9520    4.9760   -0.1110 c3        1 MOL      0.100714
     26 C12         2.2250    6.5020   -0.3140 c3        1 MOL      0.059543
     27 N3          3.6800    6.7710   -0.3770 n4        1 MOL     -0.511685
     28 H8         -0.8340    2.4350    1.4400 hn        1 MOL      0.051045
     29 H9         -1.6990    4.9640    2.8020 h1        1 MOL      0.152293
     30 H10         0.8310    4.6820    2.2590 hc        1 MOL      0.047555
     31 H11         0.1450    6.0850    1.5580 hc        1 MOL      0.047555
     32 H12        -0.0920    5.1620   -0.6380 hc        1 MOL      0.074761
     33 H13         0.4220    3.5740    0.0190 hc        1 MOL      0.074761
     34 H14         2.2640    4.3740   -0.9540 hc        1 MOL     -0.006610
     35 H15         2.5740    4.5660    0.6890 hc        1 MOL     -0.006610
     36 H16         1.8350    6.9260    0.6090 hx        1 MOL      0.076081
     37 H17         1.6230    6.8890   -1.1400 hx        1 MOL      0.076081
     38 H18         4.1800    6.6090    0.4790 hn        1 MOL      0.367184
     39 H19         4.1050    6.3300   -1.1850 hn        1 MOL      0.367184
     40 H20         3.7690    7.7620   -0.5110 hn        1 MOL      0.367184
     41 N4         -3.0730    4.2870    0.0190 n         1 MOL     -0.431296
     42 C13        -4.0770    4.7940   -0.9050 c3        1 MOL      0.038585
     43 C14        -5.3900    4.0300   -0.7500 c         1 MOL      0.399712
     44 O6         -6.4100    4.4430   -1.3520 o         1 MOL     -0.518505
     45 C15        -3.4610    4.7210   -2.3240 c3        1 MOL     -0.180631
     46 C16        -2.9780    3.3230   -2.7220 c         1 MOL      0.821637
     47 O7         -3.0950    2.3380   -1.9820 o         1 MOL     -0.716288
     48 O8         -2.4690    3.2010   -3.8720 o         1 MOL     -0.716288
     49 H21        -2.6770    3.3660   -0.0830 hn        1 MOL      0.214394
     50 H22        -4.2450    5.8590   -0.7320 h1        1 MOL      0.108969
     51 H23        -2.5890    5.3590   -2.4620 hc        1 MOL      0.044208
     52 H24        -4.3220    4.9960   -2.9360 hc        1 MOL      0.044208
     53 N5         -5.5260    2.9800    0.0420 n         1 MOL     -0.091887
     54 C17        -6.8050    2.3180    0.4360 c3        1 MOL     -0.193694
     55 C18        -7.5080    1.4690   -0.5840 c         1 MOL      0.515915
     56 O9         -8.6260    1.7730   -1.0200 o         1 MOL     -0.530514
     57 H25        -4.7120    2.6410    0.5360 hn        1 MOL      0.134254
     58 H26        -7.5200    3.0350    0.8540 h1        1 MOL      0.090333
     59 H27        -6.5960    1.7220    1.3200 h1        1 MOL      0.090333
     60 N6         -6.7300    0.4420   -0.9410 n         1 MOL     -0.160332
     61 C19        -7.1950   -0.6390   -1.8530 c3        1 MOL     -0.084946
     62 C20        -7.2870   -2.0460   -1.3010 c         1 MOL      0.390764
     63 O10        -7.9660   -2.9140   -1.8670 o         1 MOL     -0.514624
     64 C21        -6.2920   -0.6410   -3.0970 c3        1 MOL     -0.022213
     65 C22        -4.7740   -0.7770   -2.8080 c         1 MOL      0.572775
     66 O11        -4.4330   -1.3010   -1.7420 o         1 MOL     -0.657767
     67 O12        -3.9490   -0.6050   -3.7170 o         1 MOL     -0.657767
     68 H28        -5.7900    0.3680   -0.5670 hn        1 MOL      0.036132
     69 H29        -8.1920   -0.3320   -2.1900 h1        1 MOL      0.109070
     70 H30        -6.4940    0.2220   -3.7310 hc        1 MOL      0.044257
     71 H31        -6.5370   -1.4870   -3.7480 hc        1 MOL      0.044257
     72 N7         -6.7700   -2.3040   -0.0970 n         1 MOL     -0.195269
     73 C23        -6.8660   -3.6020    0.5770 c3        1 MOL     -0.090605
     74 C24        -5.5680   -4.3940    0.4590 c         1 MOL      0.537278
     75 O13        -5.6140   -5.5860    0.8080 o         1 MOL     -0.587339
     76 H32        -6.2750   -1.5720    0.3950 hn        1 MOL      0.194726
     77 H33        -7.6760   -4.1610    0.1090 h1        1 MOL      0.079323
     78 H34        -7.0670   -3.3650    1.6200 h1        1 MOL      0.079323
     79 N8         -4.4780   -3.7580    0.1120 n         1 MOL     -0.123792
     80 C25        -3.2140   -4.4370   -0.2170 c3        1 MOL     -0.466764
     81 C26        -1.9510   -3.5320    0.0760 c         1 MOL      0.795150
     82 O14        -1.9460   -2.3080   -0.1200 o         1 MOL     -0.682260
     83 C27        -3.2900   -4.8810   -1.6750 c3        1 MOL      0.579821
     84 C28        -3.9470   -6.2230   -1.8250 c3        1 MOL     -0.619089
     85 O15        -3.8020   -3.9210   -2.5740 oh        1 MOL     -0.659554
     86 H35        -4.5800   -2.7590   -0.0500 hn        1 MOL      0.101567
     87 H36        -3.1670   -5.3720    0.3500 h1        1 MOL      0.162128
     88 H37        -2.2990   -4.9350   -2.1410 h1        1 MOL     -0.068821
     89 H38        -3.6750   -3.0860   -2.1270 ho        1 MOL      0.558736
     90 H39        -3.6830   -6.5130   -2.8440 hc        1 MOL      0.161986
     91 H40        -3.6000   -6.9820   -1.1180 hc        1 MOL      0.161986
     92 H41        -5.0370   -6.1900   -1.7500 hc        1 MOL      0.161986
     93 N9         -0.8750   -4.1930    0.4550 n         1 MOL     -0.740399
     94 C29         0.3510   -3.4790    0.9030 c3        1 MOL      0.265200
     95 C30         1.6320   -3.9240    0.0820 c         1 MOL      0.430593
     96 O16         2.1520   -5.0770    0.0990 o         1 MOL     -0.525488
     97 C31         0.5030   -3.7150    2.4070 c3        1 MOL      0.034791
     98 C32        -0.4500   -2.7680    3.2490 c3        1 MOL      0.130223
     99 C33         1.9000   -3.7600    3.0420 c3        1 MOL     -0.389540
    100 C34        -0.4690   -2.8910    4.7410 c3        1 MOL     -0.250884
    101 H42        -0.9130   -5.2010    0.6000 hn        1 MOL      0.362842
    102 H43         0.2380   -2.4000    0.8680 h1        1 MOL      0.023193
    103 H44         0.0690   -4.7160    2.4240 hc        1 MOL      0.022460
    104 H45        -1.4860   -2.8970    2.9430 hc        1 MOL      0.002042
    105 H46        -0.3290   -1.7230    2.9680 hc        1 MOL      0.002042
    106 H47         2.5980   -4.2910    2.3920 hc        1 MOL      0.092956
    107 H48         2.3310   -2.7650    3.1470 hc        1 MOL      0.092956
    108 H49         1.8060   -4.2180    4.0240 hc        1 MOL      0.092956
    109 H50         0.4750   -2.5670    5.1930 hc        1 MOL      0.057589
    110 H51        -1.2630   -2.2790    5.1700 hc        1 MOL      0.057589
    111 H52        -0.5790   -3.9400    5.0300 hc        1 MOL      0.057589
    112 N10         2.1420   -2.8860   -0.5800 n         1 MOL     -0.257987
    113 C35         3.4090   -2.9610   -1.3870 c3        1 MOL     -0.076298
    114 C36         4.6450   -2.6880   -0.5880 c         1 MOL      0.376987
    115 O17         4.6050   -2.3040    0.5660 o         1 MOL     -0.292000
    116 C37         3.3430   -1.9040   -2.4110 c3        1 MOL      0.259721
    117 C38         2.3460   -2.2050   -3.5780 c3        1 MOL     -0.319401
    118 O18         3.0750   -0.6090   -1.8700 oh        1 MOL     -0.626073
    119 H53         1.6360   -2.0160   -0.5570 hn        1 MOL      0.207433
    120 H54         3.4390   -3.9470   -1.8370 h1        1 MOL      0.098160
    121 H55         4.2790   -1.8760   -2.9690 h1        1 MOL      0.013809
    122 H56         2.1620   -0.6820   -1.5570 ho        1 MOL      0.383128
    123 H57         1.3580   -2.3580   -3.1380 hc        1 MOL      0.093505
    124 H58         2.2320   -1.4150   -4.3160 hc        1 MOL      0.093505
    125 H59         2.6590   -3.0890   -4.1340 hc        1 MOL      0.093505
    126 N11         5.8160   -2.7070   -1.2310 n         1 MOL     -0.281768
    127 C39         7.1210   -2.2970   -0.4970 c3        1 MOL     -0.316788
    128 C40         7.2430   -0.8490   -0.0650 c         1 MOL      0.443184
    129 O19         7.8910   -0.6240    0.9440 o         1 MOL     -0.476331
    130 C41         8.2890   -2.5770   -1.5120 c3        1 MOL      0.313385
    131 C42         8.4420   -4.0910   -1.7510 c3        1 MOL     -0.464372
    132 O20         7.9710   -1.9520   -2.6750 oh        1 MOL     -0.649855
    133 H60         5.8810   -3.1430   -2.1410 hn        1 MOL      0.267464
    134 H61         7.2420   -2.9400    0.3780 h1        1 MOL      0.202547
    135 H62         9.2220   -2.1650   -1.1450 h1        1 MOL      0.048319
    136 H63         8.7070   -1.7580   -3.2540 ho        1 MOL      0.430324
    137 H64         7.6360   -4.5620   -2.3370 hc        1 MOL      0.135757
    138 H65         9.3530   -4.0940   -2.3430 hc        1 MOL      0.135757
    139 H66         8.6290   -4.6620   -0.8500 hc        1 MOL      0.135757
    140 N12         6.4470    0.0430   -0.7200 n         1 MOL     -0.134517
    141 C43         6.3550    1.4540   -0.3220 c3        1 MOL     -0.169239
    142 C44         5.5860    1.6370    1.0000 c         1 MOL      0.400353
    143 O21         5.7380    2.7200    1.6510 o         1 MOL     -0.536049
    144 C45         5.6470    2.2090   -1.4500 c3        1 MOL     -0.268903
    145 C46         6.3190    2.0250   -2.7910 c3        1 MOL     -0.060801
    146 C47         7.7890    2.3680   -2.8220 c3        1 MOL     -0.140913
    147 C48         8.4450    2.2670   -4.2710 c3        1 MOL     -0.078628
    148 N13         9.9020    2.4620   -4.2650 n4        1 MOL     -0.150597
    149 H67         5.8050   -0.2010   -1.4570 hn        1 MOL      0.267815
    150 H68         7.3550    1.8840   -0.2240 h1        1 MOL      0.114851
    151 H69         5.6930    3.2840   -1.2680 hc        1 MOL      0.111458
    152 H70         4.6100    1.8870   -1.5030 hc        1 MOL      0.111458
    153 H71         5.8130    2.7650   -3.4130 hc        1 MOL      0.065145
    154 H72         6.2140    1.0070   -3.1810 hc        1 MOL      0.065145
    155 H73         8.3370    1.7140   -2.1490 hc        1 MOL      0.080053
    156 H74         7.8570    3.3930   -2.4780 hc        1 MOL      0.080053
    157 H75         7.9900    3.0170   -4.9170 hx        1 MOL      0.106244
    158 H76         8.1680    1.2290   -4.4610 hx        1 MOL      0.106244
    159 H77        10.1360    3.3110   -3.7650 hn        1 MOL      0.251585
    160 H78        10.3260    1.7970   -3.6310 hn        1 MOL      0.251585
    161 H79        10.2560    2.4620   -5.2130 hn        1 MOL      0.251585
    162 N14         4.7630    0.6410    1.3360 n         1 MOL     -0.175265
    163 C49         3.8540    0.5680    2.5370 c3        1 MOL     -0.042885
    164 C50         4.3250   -0.3580    3.7230 c         1 MOL      0.449260
    165 O22         4.2990   -0.0550    4.9010 o         1 MOL     -0.518245
    166 C51         2.4640    0.1120    2.0090 c3        1 MOL      0.151027
    167 C52         1.8330    1.0350    0.9430 c3        1 MOL     -0.021587
    168 C53         0.6090    0.4530    0.1500 c         1 MOL      0.669636
    169 O23         0.8070   -0.4360   -0.7320 o         1 MOL     -0.643438
    170 O24        -0.4550    1.0480    0.3600 o         1 MOL     -0.643438
    171 H80         4.8500   -0.1600    0.7280 hn        1 MOL      0.137957
    172 H81         3.7910    1.5660    2.9630 h1        1 MOL      0.089980
    173 H82         1.8250    0.0990    2.8940 hc        1 MOL     -0.023094
    174 H83         2.7360   -0.8530    1.5860 hc        1 MOL     -0.023094
    175 H84         2.5230    1.3060    0.1370 hc        1 MOL      0.019387
    176 H85         1.6310    2.0360    1.3430 hc        1 MOL      0.019387
    177 N15         4.9620   -1.4810    3.3650 n         1 MOL     -0.062324
    178 C54         5.5690   -2.4510    4.2220 c3        1 MOL     -0.344091
    179 H86         6.6450   -2.2810    4.2580 h1        1 MOL      0.122162
    180 H87         5.1540   -2.3610    5.2260 h1        1 MOL      0.122162
    181 H88         5.3730   -3.4510    3.8350 h1        1 MOL      0.122162
    182 H89         5.0840   -1.6600    2.3810 hn        1 MOL      0.107746
    183 Ca1        -2.1380    0.0350   -1.4170 Ca        1 MOL      1.782754
    184 O25        -0.5450    1.7110   -2.9450 oh        1 MOL     -0.917886
    185 H90        -1.0340    2.3210   -3.5000 ho        1 MOL      0.408110
    186 H91         0.3770    1.8840   -3.1700 ho        1 MOL      0.408110
    187 O26        -1.5170   -1.7970   -3.2640 oh        1 MOL     -0.917886
    188 H92        -0.8880   -2.3330   -3.7430 ho        1 MOL      0.408110
    189 H93        -2.3390   -1.8770   -3.7590 ho        1 MOL      0.408110
@<TRIPOS>BOND
     1    1    2 1   
     2    1    4 1   
     3    1    5 1   
     4    1    6 1   
     5    2    3 2   
     6    2    7 1   
     7    7    8 1   
     8    7   15 1   
     9    8    9 1   
    10    8   11 1   
    11    8   16 1   
    12    9   10 2   
    13    9   19 1   
    14   11   12 1   
    15   11   17 1   
    16   11   18 1   
    17   12   13 1   
    18   12   14 1   
    19   19   20 1   
    20   19   28 1   
    21   20   21 1   
    22   20   23 1   
    23   20   29 1   
    24   21   22 2   
    25   21   41 1   
    26   23   24 1   
    27   23   30 1   
    28   23   31 1   
    29   24   25 1   
    30   24   32 1   
    31   24   33 1   
    32   25   26 1   
    33   25   34 1   
    34   25   35 1   
    35   26   27 1   
    36   26   36 1   
    37   26   37 1   
    38   27   38 1   
    39   27   39 1   
    40   27   40 1   
    41   41   42 1   
    42   41   49 1   
    43   42   43 1   
    44   42   45 1   
    45   42   50 1   
    46   43   44 2   
    47   43   53 1   
    48   45   46 1   
    49   45   51 1   
    50   45   52 1   
    51   46   47 1   
    52   46   48 1   
    53   53   54 1   
    54   53   57 1   
    55   54   55 1   
    56   54   58 1   
    57   54   59 1   
    58   55   56 2   
    59   55   60 1   
    60   60   61 1   
    61   60   68 1   
    62   61   62 1   
    63   61   64 1   
    64   61   69 1   
    65   62   63 2   
    66   62   72 1   
    67   64   65 1   
    68   64   70 1   
    69   64   71 1   
    70   65   66 1   
    71   65   67 1   
    72   72   73 1   
    73   72   76 1   
    74   73   74 1   
    75   73   77 1   
    76   73   78 1   
    77   74   75 2   
    78   74   79 1   
    79   79   80 1   
    80   79   86 1   
    81   80   81 1   
    82   80   83 1   
    83   80   87 1   
    84   81   82 2   
    85   81   93 1   
    86   83   84 1   
    87   83   85 1   
    88   83   88 1   
    89   84   90 1   
    90   84   91 1   
    91   84   92 1   
    92   85   89 1   
    93   93   94 1   
    94   93  101 1   
    95   94   95 1   
    96   94   97 1   
    97   94  102 1   
    98   95   96 2   
    99   95  112 1   
   100   97   98 1   
   101   97   99 1   
   102   97  103 1   
   103   98  100 1   
   104   98  104 1   
   105   98  105 1   
   106   99  106 1   
   107   99  107 1   
   108   99  108 1   
   109  100  109 1   
   110  100  110 1   
   111  100  111 1   
   112  112  113 1   
   113  112  119 1   
   114  113  114 1   
   115  113  116 1   
   116  113  120 1   
   117  114  115 2   
   118  114  126 1   
   119  116  117 1   
   120  116  118 1   
   121  116  121 1   
   122  117  123 1   
   123  117  124 1   
   124  117  125 1   
   125  118  122 1   
   126  126  127 1   
   127  126  133 1   
   128  127  128 1   
   129  127  130 1   
   130  127  134 1   
   131  128  129 2   
   132  128  140 1   
   133  130  131 1   
   134  130  132 1   
   135  130  135 1   
   136  131  137 1   
   137  131  138 1   
   138  131  139 1   
   139  132  136 1   
   140  140  141 1   
   141  140  149 1   
   142  141  142 1   
   143  141  144 1   
   144  141  150 1   
   145  142  143 2   
   146  142  162 1   
   147  144  145 1   
   148  144  151 1   
   149  144  152 1   
   150  145  146 1   
   151  145  153 1   
   152  145  154 1   
   153  146  147 1   
   154  146  155 1   
   155  146  156 1   
   156  147  148 1   
   157  147  157 1   
   158  147  158 1   
   159  148  159 1   
   160  148  160 1   
   161  148  161 1   
   162  162  163 1   
   163  162  171 1   
   164  163  164 1   
   165  163  166 1   
   166  163  172 1   
   167  164  165 2   
   168  164  177 1   
   169  166  167 1   
   170  166  173 1   
   171  166  174 1   
   172  167  168 1   
   173  167  175 1   
   174  167  176 1   
   175  168  169 1   
   176  168  170 1   
   177  177  178 1   
   178  177  182 1   
   179  178  179 1   
   180  178  180 1   
   181  178  181 1   
   182  184  185 1   
   183  184  186 1   
   184  187  188 1   
   185  187  189 1   
@<TRIPOS>SUBSTRUCTURE
     1 MOL         1 TEMP              0 ****  ****    0 ROOT
