@<TRIPOS>MOLECULE
MOL
  189   185     1     0     0
SMALL
resp


@<TRIPOS>ATOM
      1 C1         -0.9220    3.3430    5.7050 c3        1 MOL     -0.466257
      2 C2         -0.9350    2.9210    4.2340 c         1 MOL      0.777324
      3 O1         -0.0240    3.2030    3.4590 o         1 MOL     -0.626414
      4 H1         -0.2850    2.6630    6.2720 hc        1 MOL      0.116177
      5 H2         -0.5330    4.3580    5.7890 hc        1 MOL      0.116177
      6 H3         -1.9360    3.3070    6.1030 hc        1 MOL      0.116177
      7 N1         -1.9270    2.1720    3.8460 n         1 MOL     -0.555800
      8 C3         -2.4270    1.9750    2.5140 c3        1 MOL      0.097824
      9 C4         -3.0680    3.2830    1.9170 c         1 MOL      0.390279
     10 O2         -3.7700    4.0970    2.5890 o         1 MOL     -0.566901
     11 C5         -3.5320    0.8620    2.4400 c3        1 MOL     -0.174942
     12 C6         -4.1550    0.7160    1.0060 c         1 MOL      0.646580
     13 O3         -3.3770    0.6620    0.0290 o         1 MOL     -0.619475
     14 O4         -5.4020    0.7510    0.9670 o         1 MOL     -0.619475
     15 H4         -2.6190    1.9890    4.5500 hn        1 MOL      0.299610
     16 H5         -1.6150    1.6630    1.8690 h1        1 MOL      0.079438
     17 H6         -4.2780    1.1340    3.1820 hc        1 MOL      0.042545
     18 H7         -3.2250   -0.1540    2.6950 hc        1 MOL      0.042545
     19 N2         -2.7040    3.5530    0.6550 n         1 MOL      0.047020
     20 C7         -3.2540    4.6520   -0.2190 c3        1 MOL      0.008518
     21 C8         -4.0450    4.1210   -1.3980 c         1 MOL      0.307057
     22 O5         -4.7700    4.9110   -2.0020 o         1 MOL     -0.563012
     23 C9         -2.1180    5.6440   -0.7610 c3        1 MOL     -0.154164
     24 C10        -1.0680    6.0030    0.2940 c3        1 MOL     -0.210277
     25 C11        -1.5580    6.6680    1.5520 c3        1 MOL     -0.066148
     26 C12        -0.3250    6.6840    2.4620 c3        1 MOL     -0.026266
     27 N3         -0.6650    7.2490    3.8130 n4        1 MOL     -0.333402
     28 H8         -1.8410    3.0800    0.4210 hn        1 MOL      0.162856
     29 H9         -3.9030    5.2330    0.4310 h1        1 MOL      0.060932
     30 H10        -2.5200    6.5710   -1.1750 hc        1 MOL      0.108083
     31 H11        -1.6020    5.1810   -1.6000 hc        1 MOL      0.108083
     32 H12        -0.4140    6.7840   -0.0930 hc        1 MOL      0.081038
     33 H13        -0.5380    5.0810    0.5390 hc        1 MOL      0.081038
     34 H14        -2.3080    6.0660    2.0720 hc        1 MOL      0.063887
     35 H15        -1.7600    7.7210    1.3330 hc        1 MOL      0.063887
     36 H16         0.3780    7.3140    1.9220 hx        1 MOL      0.096284
     37 H17        -0.0330    5.6450    2.6460 hx        1 MOL      0.096284
     38 H18        -1.1140    8.1530    3.7360 hn        1 MOL      0.310628
     39 H19        -1.2250    6.6330    4.3870 hn        1 MOL      0.310628
     40 H20         0.1860    7.4590    4.3080 hn        1 MOL      0.310628
     41 N4         -3.9950    2.9140   -1.8070 n         1 MOL      0.078348
     42 C13        -4.7080    2.5580   -3.0670 c3        1 MOL     -0.326814
     43 C14        -6.1910    2.3100   -2.7080 c         1 MOL      0.525399
     44 O6         -6.9880    2.2020   -3.6730 o         1 MOL     -0.517902
     45 C15        -4.0670    1.3410   -3.7350 c3        1 MOL     -0.000801
     46 C16        -2.5840    1.4650   -3.9200 c         1 MOL      0.655412
     47 O7         -2.1100    2.2100   -4.7370 o         1 MOL     -0.637105
     48 O8         -1.8820    0.6860   -3.2740 o         1 MOL     -0.637105
     49 H21        -3.5640    2.2220   -1.2130 hn        1 MOL     -0.060121
     50 H22        -4.5410    3.3990   -3.7470 h1        1 MOL      0.166557
     51 H23        -4.4490    1.1690   -4.7410 hc        1 MOL      0.060420
     52 H24        -4.2870    0.5070   -3.0770 hc        1 MOL      0.060420
     53 N5         -6.5150    2.0120   -1.4400 n         1 MOL     -0.270350
     54 C17        -7.7560    1.3370   -1.0450 c3        1 MOL     -0.150888
     55 C18        -7.8900   -0.0380   -1.7150 c         1 MOL      0.484917
     56 O9         -8.8460   -0.3790   -2.4170 o         1 MOL     -0.532688
     57 H25        -5.7370    2.0350   -0.7960 hn        1 MOL      0.240425
     58 H26        -8.6000    1.9550   -1.3310 h1        1 MOL      0.082997
     59 H27        -7.7710    1.1370    0.0250 h1        1 MOL      0.082997
     60 N6         -6.8880   -0.7960   -1.3440 n         1 MOL     -0.167322
     61 C19        -6.8240   -2.2320   -1.7110 c3        1 MOL     -0.019570
     62 C20        -6.3850   -3.1110   -0.5600 c         1 MOL      0.590948
     63 O10        -6.1180   -4.3180   -0.7110 o         1 MOL     -0.535324
     64 C21        -5.9140   -2.4060   -2.9520 c3        1 MOL     -0.223693
     65 C22        -4.3860   -2.2110   -2.6470 c         1 MOL      0.655018
     66 O11        -3.5270   -2.3140   -3.5640 o         1 MOL     -0.685974
     67 O12        -3.9330   -1.8650   -1.4840 o         1 MOL     -0.685974
     68 H28        -6.3420   -0.5900   -0.5190 hn        1 MOL      0.082063
     69 H29        -7.8180   -2.6690   -1.8870 h1        1 MOL      0.068894
     70 H30        -6.1880   -1.7010   -3.7290 hc        1 MOL      0.085999
     71 H31        -6.0520   -3.4400   -3.2790 hc        1 MOL      0.085999
     72 N7         -6.2850   -2.5120    0.6710 n         1 MOL     -0.521547
     73 C23        -6.2550   -3.2820    1.9270 c3        1 MOL     -0.054438
     74 C24        -4.9840   -4.0660    2.1360 c         1 MOL      0.498072
     75 O13        -4.9960   -4.9590    2.9910 o         1 MOL     -0.540818
     76 H32        -6.2920   -1.5100    0.8170 hn        1 MOL      0.357576
     77 H33        -7.1110   -3.9300    2.0850 h1        1 MOL      0.083467
     78 H34        -6.3080   -2.4420    2.6230 h1        1 MOL      0.083467
     79 N8         -3.8860   -3.7290    1.3400 n         1 MOL     -0.182560
     80 C25        -2.5530   -4.3320    1.5300 c3        1 MOL     -0.241798
     81 C26        -1.3580   -3.3250    1.4130 c         1 MOL      0.684251
     82 O14        -1.5510   -2.1840    0.9870 o         1 MOL     -0.682018
     83 C27        -2.3410   -5.5520    0.6080 c3        1 MOL      0.444393
     84 C28        -3.3260   -6.6660    0.6270 c3        1 MOL     -0.427390
     85 O15        -2.3680   -5.0820   -0.6890 oh        1 MOL     -0.639876
     86 H35        -3.8950   -3.0490    0.5890 hn        1 MOL      0.205822
     87 H36        -2.4450   -4.8280    2.4950 h1        1 MOL      0.072404
     88 H37        -1.3470   -5.9480    0.8230 h1        1 MOL     -0.022566
     89 H38        -3.1170   -5.4680   -1.1550 ho        1 MOL      0.412683
     90 H39        -3.3380   -7.0590    1.6400 hc        1 MOL      0.115649
     91 H40        -4.3210   -6.3600    0.3100 hc        1 MOL      0.115649
     92 H41        -2.9500   -7.4750    0.0050 hc        1 MOL      0.115649
     93 N9         -0.2230   -3.6790    2.0450 n         1 MOL     -0.464706
     94 C29         1.0090   -2.8660    2.1280 c3        1 MOL      0.078923
     95 C30         2.1640   -3.5140    1.3880 c         1 MOL      0.498767
     96 O16         2.3220   -4.6760    1.4720 o         1 MOL     -0.545065
     97 C31         1.3620   -2.4530    3.5830 c3        1 MOL      0.049116
     98 C32         0.0760   -1.9260    4.2760 c3        1 MOL      0.024464
     99 C33         2.5060   -1.4990    3.4850 c3        1 MOL     -0.164591
    100 C34         0.4570   -1.3090    5.6710 c3        1 MOL     -0.412513
    101 H42        -0.1410   -4.5880    2.4660 hn        1 MOL      0.274951
    102 H43         0.7090   -1.9550    1.5970 h1        1 MOL      0.042901
    103 H44         1.7780   -3.3230    4.0950 hc        1 MOL      0.001310
    104 H45        -0.5790   -2.7820    4.4260 hc        1 MOL      0.049640
    105 H46        -0.3680   -1.1820    3.6210 hc        1 MOL      0.049640
    106 H47         3.3520   -1.8740    2.9000 hc        1 MOL      0.025577
    107 H48         2.1660   -0.5300    3.1330 hc        1 MOL      0.025577
    108 H49         2.9310   -1.2510    4.4650 hc        1 MOL      0.025577
    109 H50         1.1370   -1.9510    6.2380 hc        1 MOL      0.115456
    110 H51         1.1260   -0.4870    5.4210 hc        1 MOL      0.115456
    111 H52        -0.4440   -1.1030    6.2320 hc        1 MOL      0.115456
    112 N10         2.9410   -2.7090    0.5820 n         1 MOL     -0.088528
    113 C35         4.1310   -3.1480   -0.1750 c3        1 MOL      0.005879
    114 C36         5.4180   -2.3570    0.3700 c         1 MOL      0.170841
    115 O17         5.2570   -1.3170    1.0080 o         1 MOL     -0.188377
    116 C37         3.8710   -2.9430   -1.7110 c3        1 MOL      0.196452
    117 C38         2.4750   -3.3590   -2.2720 c3        1 MOL     -0.384551
    118 O18         3.9150   -1.5580   -1.9300 oh        1 MOL     -0.514874
    119 H53         2.6170   -1.7630    0.4580 hn        1 MOL      0.108554
    120 H54         4.3880   -4.2030   -0.0350 h1        1 MOL      0.063684
    121 H55         4.7160   -3.3940   -2.2280 h1        1 MOL      0.004812
    122 H56         3.7810   -1.3800   -2.8660 ho        1 MOL      0.382654
    123 H57         2.3530   -4.4280   -2.0880 hc        1 MOL      0.123053
    124 H58         1.6430   -2.8300   -1.7990 hc        1 MOL      0.123053
    125 H59         2.4630   -3.1680   -3.3450 hc        1 MOL      0.123053
    126 N11         6.5640   -2.5470   -0.2050 n         1 MOL     -0.076464
    127 C39         7.7670   -1.7840    0.0680 c3        1 MOL     -0.448407
    128 C40         7.7430   -0.3230   -0.5230 c         1 MOL      0.460815
    129 O19         8.5600    0.5070   -0.0680 o         1 MOL     -0.526794
    130 C41         8.9880   -2.5310   -0.4380 c3        1 MOL      0.356744
    131 C42         9.2240   -3.8690    0.3040 c3        1 MOL     -0.282491
    132 O20         8.8220   -2.8010   -1.7860 oh        1 MOL     -0.617612
    133 H60         6.7060   -3.4090   -0.7150 hn        1 MOL      0.262875
    134 H61         7.8090   -1.6780    1.1590 h1        1 MOL      0.234657
    135 H62         9.8680   -1.8850   -0.3650 h1        1 MOL      0.037538
    136 H63         9.5350   -2.3460   -2.2240 ho        1 MOL      0.404181
    137 H64         8.4870   -4.6700    0.1610 hc        1 MOL      0.082688
    138 H65        10.2190   -4.2850    0.1290 hc        1 MOL      0.082688
    139 H66         9.1030   -3.6220    1.3500 hc        1 MOL      0.082688
    140 N12         6.6740    0.0950   -1.2220 n         1 MOL     -0.125991
    141 C43         6.4100    1.4770   -1.5470 c3        1 MOL     -0.107380
    142 C44         5.4200    2.2340   -0.5790 c         1 MOL      0.534366
    143 O21         5.1020    3.4070   -0.7770 o         1 MOL     -0.558423
    144 C45         5.9090    1.6350   -2.9910 c3        1 MOL     -0.005801
    145 C46         6.7830    0.9400   -4.0270 c3        1 MOL     -0.164365
    146 C47         8.2590    1.3780   -4.0360 c3        1 MOL     -0.058350
    147 C48         8.4860    2.8350   -4.3140 c3        1 MOL      0.155958
    148 N13         9.8880    3.1650   -4.6250 n4        1 MOL     -0.256546
    149 H67         5.9830   -0.6020   -1.4730 hn        1 MOL      0.129230
    150 H68         7.3670    1.9950   -1.4530 h1        1 MOL      0.084147
    151 H69         5.7900    2.6910   -3.2260 hc        1 MOL      0.052612
    152 H70         4.8830    1.2730   -3.0560 hc        1 MOL      0.052612
    153 H71         6.4210    1.1190   -5.0440 hc        1 MOL      0.066640
    154 H72         6.7130   -0.1300   -3.8270 hc        1 MOL      0.066640
    155 H73         8.7620    0.8370   -4.8320 hc        1 MOL      0.029892
    156 H74         8.7590    1.1370   -3.1010 hc        1 MOL      0.029892
    157 H75         8.2220    3.4230   -3.4380 hx        1 MOL      0.056198
    158 H76         7.8650    3.2380   -5.1110 hx        1 MOL      0.056198
    159 H77        10.1550    2.8180   -5.5370 hn        1 MOL      0.252671
    160 H78        10.1450    4.1450   -4.5300 hn        1 MOL      0.252671
    161 H79        10.5910    2.6720   -4.0950 hn        1 MOL      0.252671
    162 N14         4.9630    1.5290    0.4540 n         1 MOL     -0.266053
    163 C49         4.0740    2.0080    1.5360 c3        1 MOL     -0.099198
    164 C50         4.6100    1.6690    2.9380 c         1 MOL      0.484612
    165 O22         4.3240    2.3140    3.9070 o         1 MOL     -0.540823
    166 C51         2.7360    1.3600    1.2710 c3        1 MOL     -0.014031
    167 C52         1.9580    1.9790    0.0930 c3        1 MOL     -0.216988
    168 C53         0.7360    1.1150   -0.0620 c         1 MOL      0.788051
    169 O23        -0.3670    1.5680   -0.4030 o         1 MOL     -0.785094
    170 O24         0.7970   -0.1410   -0.0890 o         1 MOL     -0.785094
    171 H80         5.3010    0.5870    0.4840 hn        1 MOL      0.113714
    172 H81         3.8950    3.0820    1.6090 h1        1 MOL      0.110672
    173 H82         2.1080    1.4440    2.1600 hc        1 MOL      0.102172
    174 H83         2.8650    0.2870    1.2360 hc        1 MOL      0.102172
    175 H84         2.6300    2.0510   -0.7650 hc        1 MOL      0.066835
    176 H85         1.6810    2.9690    0.4760 hc        1 MOL      0.066835
    177 N15         5.4150    0.6450    3.1010 n         1 MOL     -0.217746
    178 C54         5.6840    0.0480    4.4360 c3        1 MOL     -0.266975
    179 H86         6.1780   -0.9150    4.3100 h1        1 MOL      0.114290
    180 H87         6.3290    0.7140    5.0110 h1        1 MOL      0.114290
    181 H88         4.7430   -0.0950    4.9670 h1        1 MOL      0.114290
    182 H89         5.5280    0.0600    2.2870 hn        1 MOL      0.105898
    183 Ca1        -1.4750   -0.7190   -1.1010 Ca        1 MOL      1.749495
    184 O25         0.5440   -0.7810   -3.0780 oh        1 MOL     -0.805405
    185 H90         0.2150   -0.0720   -3.6270 ho        1 MOL      0.374738
    186 H91         1.4800   -0.8210   -3.2530 ho        1 MOL      0.374738
    187 O26        -1.2310   -3.1900   -2.3190 oh        1 MOL     -0.805405
    188 H92        -2.0650   -3.0380   -2.7630 ho        1 MOL      0.374738
    189 H93        -1.2730   -4.1140   -2.0420 ho        1 MOL      0.374738
@<TRIPOS>BOND
     1    1    2 1   
     2    1    4 1   
     3    1    5 1   
     4    1    6 1   
     5    2    3 2   
     6    2    7 1   
     7    7    8 1   
     8    7   15 1   
     9    8    9 1   
    10    8   11 1   
    11    8   16 1   
    12    9   10 2   
    13    9   19 1   
    14   11   12 1   
    15   11   17 1   
    16   11   18 1   
    17   12   13 1   
    18   12   14 1   
    19   19   20 1   
    20   19   28 1   
    21   20   21 1   
    22   20   23 1   
    23   20   29 1   
    24   21   22 2   
    25   21   41 1   
    26   23   24 1   
    27   23   30 1   
    28   23   31 1   
    29   24   25 1   
    30   24   32 1   
    31   24   33 1   
    32   25   26 1   
    33   25   34 1   
    34   25   35 1   
    35   26   27 1   
    36   26   36 1   
    37   26   37 1   
    38   27   38 1   
    39   27   39 1   
    40   27   40 1   
    41   41   42 1   
    42   41   49 1   
    43   42   43 1   
    44   42   45 1   
    45   42   50 1   
    46   43   44 2   
    47   43   53 1   
    48   45   46 1   
    49   45   51 1   
    50   45   52 1   
    51   46   47 1   
    52   46   48 1   
    53   53   54 1   
    54   53   57 1   
    55   54   55 1   
    56   54   58 1   
    57   54   59 1   
    58   55   56 2   
    59   55   60 1   
    60   60   61 1   
    61   60   68 1   
    62   61   62 1   
    63   61   64 1   
    64   61   69 1   
    65   62   63 2   
    66   62   72 1   
    67   64   65 1   
    68   64   70 1   
    69   64   71 1   
    70   65   66 1   
    71   65   67 1   
    72   72   73 1   
    73   72   76 1   
    74   73   74 1   
    75   73   77 1   
    76   73   78 1   
    77   74   75 2   
    78   74   79 1   
    79   79   80 1   
    80   79   86 1   
    81   80   81 1   
    82   80   83 1   
    83   80   87 1   
    84   81   82 2   
    85   81   93 1   
    86   83   84 1   
    87   83   85 1   
    88   83   88 1   
    89   84   90 1   
    90   84   91 1   
    91   84   92 1   
    92   85   89 1   
    93   93   94 1   
    94   93  101 1   
    95   94   95 1   
    96   94   97 1   
    97   94  102 1   
    98   95   96 2   
    99   95  112 1   
   100   97   98 1   
   101   97   99 1   
   102   97  103 1   
   103   98  100 1   
   104   98  104 1   
   105   98  105 1   
   106   99  106 1   
   107   99  107 1   
   108   99  108 1   
   109  100  109 1   
   110  100  110 1   
   111  100  111 1   
   112  112  113 1   
   113  112  119 1   
   114  113  114 1   
   115  113  116 1   
   116  113  120 1   
   117  114  115 2   
   118  114  126 1   
   119  116  117 1   
   120  116  118 1   
   121  116  121 1   
   122  117  123 1   
   123  117  124 1   
   124  117  125 1   
   125  118  122 1   
   126  126  127 1   
   127  126  133 1   
   128  127  128 1   
   129  127  130 1   
   130  127  134 1   
   131  128  129 2   
   132  128  140 1   
   133  130  131 1   
   134  130  132 1   
   135  130  135 1   
   136  131  137 1   
   137  131  138 1   
   138  131  139 1   
   139  132  136 1   
   140  140  141 1   
   141  140  149 1   
   142  141  142 1   
   143  141  144 1   
   144  141  150 1   
   145  142  143 2   
   146  142  162 1   
   147  144  145 1   
   148  144  151 1   
   149  144  152 1   
   150  145  146 1   
   151  145  153 1   
   152  145  154 1   
   153  146  147 1   
   154  146  155 1   
   155  146  156 1   
   156  147  148 1   
   157  147  157 1   
   158  147  158 1   
   159  148  159 1   
   160  148  160 1   
   161  148  161 1   
   162  162  163 1   
   163  162  171 1   
   164  163  164 1   
   165  163  166 1   
   166  163  172 1   
   167  164  165 2   
   168  164  177 1   
   169  166  167 1   
   170  166  173 1   
   171  166  174 1   
   172  167  168 1   
   173  167  175 1   
   174  167  176 1   
   175  168  169 1   
   176  168  170 1   
   177  177  178 1   
   178  177  182 1   
   179  178  179 1   
   180  178  180 1   
   181  178  181 1   
   182  184  185 1   
   183  184  186 1   
   184  187  188 1   
   185  187  189 1   
@<TRIPOS>SUBSTRUCTURE
     1 MOL         1 TEMP              0 ****  ****    0 ROOT
