@<TRIPOS>MOLECULE
MOL
  186   183     1     0     0
SMALL
resp


@<TRIPOS>ATOM
      1 C1          0.4890   -1.1660    6.2080 c3        1 MOL     -0.280909
      2 C2          0.8560   -1.3340    4.7930 c         1 MOL      0.796413
      3 O1          0.0560   -1.7340    3.9720 o         1 MOL     -0.586550
      4 H1          0.7590   -2.0650    6.7630 hc        1 MOL      0.060800
      5 H2          1.0210   -0.3100    6.6230 hc        1 MOL      0.060800
      6 H3         -0.5860   -1.0010    6.2880 hc        1 MOL      0.060800
      7 N1          2.1350   -1.1200    4.4660 n         1 MOL     -0.803535
      8 C3          2.7180   -1.3920    3.1550 c3        1 MOL      0.522290
      9 C4          2.9430   -2.8960    2.9150 c         1 MOL      0.430311
     10 O2          3.5350   -3.5330    3.8150 o         1 MOL     -0.582504
     11 C5          4.0820   -0.6280    3.1290 c3        1 MOL     -0.169921
     12 C6          4.6850   -0.7400    1.7330 c         1 MOL      0.603207
     13 O3          5.9300   -0.8760    1.6990 o         1 MOL     -0.609539
     14 O4          3.9780   -0.8420    0.6680 o         1 MOL     -0.609539
     15 H4          2.7370   -0.8630    5.2320 hn        1 MOL      0.342135
     16 H5          2.0720   -0.9470    2.3950 h1        1 MOL     -0.030147
     17 H6          4.6420   -1.1460    3.9140 hc        1 MOL      0.018656
     18 H7          3.9970    0.3980    3.4790 hc        1 MOL      0.018656
     19 N2          2.5150   -3.4130    1.7340 n         1 MOL     -0.230281
     20 C7          2.6510   -4.8210    1.3990 c3        1 MOL      0.065002
     21 C8          3.6020   -5.0590    0.2220 c         1 MOL      0.464657
     22 O5          4.0380   -6.1500    0.0850 o         1 MOL     -0.582924
     23 C9          1.1850   -5.3700    1.2500 c3        1 MOL      0.381248
     24 C10         0.1320   -4.7620    2.1940 c3        1 MOL     -0.077828
     25 C11         1.1300   -6.9360    1.4000 c3        1 MOL     -0.219271
     26 C12        -1.2460   -5.3540    1.9850 c3        1 MOL      0.044328
     27 H8          1.9800   -2.8070    1.1370 hn        1 MOL      0.004206
     28 H9          2.9690   -5.3830    2.2780 h1        1 MOL      0.023269
     29 H10         0.8750   -5.1650    0.2170 hc        1 MOL     -0.048216
     30 H11        -0.0100   -3.7050    1.9410 hc        1 MOL      0.010620
     31 H12         0.4930   -4.7310    3.2150 hc        1 MOL      0.010620
     32 H13         1.6900   -7.3870    0.5770 hc        1 MOL      0.018237
     33 H14         1.7240   -7.1760    2.2840 hc        1 MOL      0.018237
     34 H15         0.1270   -7.3520    1.4520 hc        1 MOL      0.018237
     35 H16        -1.4120   -5.8340    1.0230 hc        1 MOL     -0.008800
     36 H17        -1.3710   -6.1830    2.6830 hc        1 MOL     -0.008800
     37 H18        -2.0190   -4.6770    2.3430 hc        1 MOL     -0.008800
     38 N3          3.8160   -4.1460   -0.7070 n         1 MOL     -0.311197
     39 C13         4.6230   -4.2550   -1.9910 c3        1 MOL      0.142044
     40 C14         5.8820   -3.4820   -2.0750 c         1 MOL      0.297192
     41 O6          6.5550   -3.4170   -3.1470 o         1 MOL     -0.511181
     42 C15         3.6710   -3.9830   -3.1480 c3        1 MOL     -0.310255
     43 C16         3.0390   -2.5800   -3.0800 c         1 MOL      0.992443
     44 O7          2.0070   -2.4110   -3.7100 o         1 MOL     -0.793043
     45 O8          3.3970   -1.6570   -2.3760 o         1 MOL     -0.793043
     46 H19         3.5400   -3.2340   -0.3760 hn        1 MOL      0.196542
     47 H20         4.9680   -5.2830   -2.1060 h1        1 MOL      0.080700
     48 H21         2.8840   -4.7260   -3.0600 hc        1 MOL      0.060962
     49 H22         4.1780   -3.9610   -4.1150 hc        1 MOL      0.060962
     50 N4          6.2540   -2.7900   -1.0040 n         1 MOL     -0.045682
     51 C17         7.6450   -2.4780   -0.7610 c3        1 MOL     -0.369240
     52 C18         8.0340   -1.0370   -1.2280 c         1 MOL      0.653709
     53 O9          9.1170   -0.8240   -1.7420 o         1 MOL     -0.618575
     54 H23         5.5840   -2.5770   -0.2740 hn        1 MOL      0.139306
     55 H24         8.2690   -3.1900   -1.3060 h1        1 MOL      0.127765
     56 H25         7.8080   -2.5610    0.3160 h1        1 MOL      0.127765
     57 N5          7.1480   -0.0690   -1.0050 n         1 MOL     -0.324798
     58 C19         7.3300    1.3040   -1.5220 c3        1 MOL      0.078133
     59 C20         7.2800    2.4020   -0.4000 c         1 MOL      0.291289
     60 O10         7.4710    3.5940   -0.7430 o         1 MOL     -0.478644
     61 C21         6.3340    1.6090   -2.6320 c3        1 MOL     -0.183988
     62 C22         4.8890    1.4300   -2.1910 c         1 MOL      0.740345
     63 O11         3.9990    1.1780   -3.0430 o         1 MOL     -0.722817
     64 O12         4.6010    1.4250   -0.9690 o         1 MOL     -0.722817
     65 H26         6.2810   -0.2750   -0.5430 hn        1 MOL      0.182294
     66 H27         8.3750    1.3610   -1.8310 h1        1 MOL      0.080945
     67 H28         6.6300    0.9300   -3.4410 hc        1 MOL      0.066788
     68 H29         6.4540    2.6230   -3.0000 hc        1 MOL      0.066788
     69 N6          6.9690    2.0250    0.9210 n         1 MOL     -0.114673
     70 C23         6.7110    2.8700    2.0840 c3        1 MOL     -0.156322
     71 C24         5.4900    3.7500    1.9260 c         1 MOL      0.621697
     72 O13         5.4640    4.8520    2.4450 o         1 MOL     -0.619187
     73 H30         6.8560    1.0480    1.1280 hn        1 MOL      0.123751
     74 H31         7.5690    3.5030    2.2820 h1        1 MOL      0.063610
     75 H32         6.4050    2.0620    2.7530 h1        1 MOL      0.063610
     76 N7          4.5260    3.3460    1.1150 n         1 MOL     -0.262853
     77 C25         3.2750    4.0830    0.9130 c3        1 MOL     -0.276102
     78 C26         2.0500    3.1590    1.1100 c         1 MOL      0.881467
     79 O14         2.1630    1.9260    0.9400 o         1 MOL     -0.844781
     80 C27         3.3230    4.7430   -0.4520 c3        1 MOL      0.021537
     81 C28         4.2790    5.9560   -0.4710 c3        1 MOL     -0.145349
     82 C29         4.5840    6.3890   -1.8820 c         1 MOL      0.571282
     83 N8          4.0550    7.5120   -2.2890 n         1 MOL     -0.737716
     84 O15         5.2530    5.6910   -2.6530 o         1 MOL     -0.519148
     85 H33         4.6180    2.5070    0.5540 hn        1 MOL      0.279561
     86 H34         3.1960    4.9840    1.5240 h1        1 MOL      0.097893
     87 H35         2.3520    4.9970   -0.8980 hc        1 MOL      0.038953
     88 H36         3.6800    4.0260   -1.1810 hc        1 MOL      0.038953
     89 H37         5.2640    5.6410   -0.1130 hc        1 MOL      0.068276
     90 H38         3.9190    6.7560    0.1580 hc        1 MOL      0.068276
     91 H39         3.4820    8.1700   -1.7860 hn        1 MOL      0.326308
     92 H40         4.2100    7.7810   -3.2510 hn        1 MOL      0.326308
     93 N9          0.8600    3.6890    1.3630 n         1 MOL     -0.603999
     94 C30        -0.3640    2.9320    1.5400 c3        1 MOL     -0.064803
     95 C31        -1.4740    3.4670    0.6480 c         1 MOL      0.587243
     96 O16        -1.9480    4.5890    0.8990 o         1 MOL     -0.590783
     97 C32        -0.7510    2.9570    3.1040 c3        1 MOL      0.128855
     98 C33        -1.7130    1.8110    3.2920 c3        1 MOL     -0.291058
     99 C34         0.4480    2.9330    4.1040 c3        1 MOL     -0.291058
    100 H41         0.8500    4.6680    1.6020 hn        1 MOL      0.308871
    101 H42        -0.2190    1.8670    1.3570 h1        1 MOL      0.294451
    102 H43        -1.3880    3.7770    3.4440 hc        1 MOL      0.009869
    103 H44        -1.2890    0.8520    2.9830 hc        1 MOL      0.069025
    104 H45        -1.9620    1.8230    4.3540 hc        1 MOL      0.069025
    105 H46        -2.5960    1.7810    2.6550 hc        1 MOL      0.069025
    106 H47         1.2120    2.1720    3.9550 hc        1 MOL      0.069025
    107 H48         1.1360    3.7700    4.0830 hc        1 MOL      0.069025
    108 H49         0.1840    2.9060    5.1570 hc        1 MOL      0.069025
    109 N10        -1.8920    2.6620   -0.3470 n         1 MOL     -0.337901
    110 C35        -3.1100    2.8360   -1.1690 c3        1 MOL      0.029236
    111 C36        -4.2600    2.0610   -0.5790 c         1 MOL      0.561423
    112 O17        -4.0650    1.2420    0.2520 o         1 MOL     -0.327879
    113 C37        -2.7140    2.4580   -2.6510 c3        1 MOL     -0.294465
    114 C38        -3.0670    1.0050   -2.8800 c         1 MOL      0.535330
    115 N11        -2.3720    0.1010   -2.2490 n         1 MOL     -0.551844
    116 O18        -4.0460    0.6900   -3.4920 o         1 MOL     -0.543977
    117 H50        -1.5730    1.7120   -0.2020 hn        1 MOL      0.142539
    118 H51        -3.3870    3.8820   -1.0400 h1        1 MOL      0.059537
    119 H52        -1.6730    2.6770   -2.8840 hc        1 MOL      0.107292
    120 H53        -3.3560    3.0030   -3.3470 hc        1 MOL      0.107292
    121 H54        -1.5920    0.3570   -1.6590 hn        1 MOL      0.316177
    122 H55        -2.5770   -0.8720   -2.3990 hn        1 MOL      0.316177
    123 N12        -5.4690    2.4160   -0.9920 n         1 MOL     -0.637190
    124 C39        -6.7560    2.0270   -0.4600 c3        1 MOL      0.260169
    125 C40        -6.8560    0.4770   -0.3280 c         1 MOL      0.663122
    126 O19        -7.3730    0.0300    0.6980 o         1 MOL     -0.534081
    127 C41        -7.8790    2.6150   -1.2340 c3        1 MOL     -0.241689
    128 C42        -9.2010    2.3620   -0.6340 ca        1 MOL     -0.047575
    129 C43        -9.4910    2.7700    0.6780 ca        1 MOL     -0.050867
    130 C44       -10.2250    1.6020   -1.3050 ca        1 MOL     -0.050867
    131 C45       -10.7580    2.6460    1.2450 ca        1 MOL     -0.409199
    132 C46       -11.4080    1.3010   -0.6100 ca        1 MOL     -0.409199
    133 C47       -11.6720    1.8010    0.6670 ca        1 MOL      0.523485
    134 O20       -12.8350    1.4820    1.2500 oh        1 MOL     -0.524205
    135 H56        -5.5400    3.1910   -1.6420 hn        1 MOL      0.307455
    136 H57        -6.6950    2.3620    0.5820 h1        1 MOL      0.037645
    137 H58        -7.8940    2.1090   -2.2000 hc        1 MOL      0.086243
    138 H59        -7.6260    3.6710   -1.3820 hc        1 MOL      0.086243
    139 H60        -8.7200    3.2810    1.2470 ha        1 MOL      0.120764
    140 H61       -10.0630    1.1530   -2.2790 ha        1 MOL      0.120764
    141 H62       -10.8610    3.0380    2.2430 ha        1 MOL      0.169138
    142 H63       -12.1910    0.7010   -1.0410 ha        1 MOL      0.169138
    143 H64       -13.4380    1.2190    0.5480 ho        1 MOL      0.349126
    144 N13        -6.2430   -0.3220   -1.2550 n         1 MOL     -0.560119
    145 C48        -6.1920   -1.7810   -1.3450 c3        1 MOL      0.060974
    146 C49        -5.4540   -2.4170   -0.1380 c         1 MOL      0.337661
    147 O21        -5.6930   -3.5340    0.2230 o         1 MOL     -0.507729
    148 C50        -5.7140   -2.2620   -2.6800 c3        1 MOL      0.213768
    149 C51        -6.6810   -2.4280   -3.8630 c3        1 MOL     -0.231482
    150 C52        -6.1230   -3.4900   -4.8570 c         1 MOL      0.698341
    151 O22        -6.0500   -4.6680   -4.4150 o         1 MOL     -0.721829
    152 O23        -5.7770   -3.1900   -5.9990 o         1 MOL     -0.721829
    153 H65        -5.8080    0.1340   -2.0430 hn        1 MOL      0.287806
    154 H66        -7.1930   -2.1870   -1.2000 h1        1 MOL      0.071006
    155 H67        -5.4090   -3.2730   -2.4200 hc        1 MOL     -0.024938
    156 H68        -4.8210   -1.6810   -2.9500 hc        1 MOL     -0.024938
    157 H69        -6.7430   -1.4280   -4.3070 hc        1 MOL     -0.000552
    158 H70        -7.6790   -2.7230   -3.5270 hc        1 MOL     -0.000552
    159 N14        -4.5610   -1.6660    0.4950 n         1 MOL     -0.000131
    160 C53        -3.8620   -1.9570    1.7200 c3        1 MOL     -0.013396
    161 C54        -4.5810   -1.4400    2.9390 c         1 MOL      0.424091
    162 O24        -4.6610   -2.0470    4.0060 o         1 MOL     -0.565531
    163 C55        -2.3750   -1.4780    1.6120 c3        1 MOL      0.118405
    164 C56        -1.6430   -1.8410    0.3600 c3        1 MOL      0.234846
    165 C57        -0.3040   -1.1320   -0.0170 c         1 MOL      0.614294
    166 O25         0.7710   -1.7970   -0.2000 o         1 MOL     -0.695920
    167 O26        -0.3170    0.0870   -0.2040 o         1 MOL     -0.695920
    168 H71        -4.5080   -0.7060    0.1980 hn        1 MOL     -0.018507
    169 H72        -3.7520   -3.0310    1.8470 h1        1 MOL      0.055403
    170 H73        -1.8330   -1.9360    2.4390 hc        1 MOL     -0.049145
    171 H74        -2.2390   -0.3980    1.6640 hc        1 MOL     -0.049145
    172 H75        -2.3280   -1.7390   -0.4830 hc        1 MOL     -0.100786
    173 H76        -1.4340   -2.9140    0.4130 hc        1 MOL     -0.100786
    174 N15        -5.3530   -0.3590    2.8710 n         1 MOL      0.024358
    175 C58        -6.1070    0.1740    3.9650 c3        1 MOL     -0.421758
    176 H77        -5.7970   -0.3130    4.8890 h1        1 MOL      0.130651
    177 H78        -5.9270    1.2460    4.0410 h1        1 MOL      0.130651
    178 H79        -7.1680   -0.0060    3.7980 h1        1 MOL      0.130651
    179 H80        -5.5400    0.0260    1.9540 hn        1 MOL      0.028756
    180 Ca1         2.3120    0.3350   -1.0310 Ca        1 MOL      1.821611
    181 O27         0.5670   -0.2720   -3.1010 oh        1 MOL     -0.890889
    182 H81         1.1740   -0.9600   -3.3850 ho        1 MOL      0.415798
    183 H82        -0.2880   -0.5790   -3.3880 ho        1 MOL      0.415798
    184 O28         1.2260    2.5530   -2.2660 oh        1 MOL     -0.890889
    185 H83         1.4050    3.4760   -2.4440 ho        1 MOL      0.415798
    186 H84         0.8140    2.2280   -3.0650 ho        1 MOL      0.415798
@<TRIPOS>BOND
     1    1    2 1   
     2    1    4 1   
     3    1    5 1   
     4    1    6 1   
     5    2    3 2   
     6    2    7 1   
     7    7    8 1   
     8    7   15 1   
     9    8    9 1   
    10    8   11 1   
    11    8   16 1   
    12    9   10 2   
    13    9   19 1   
    14   11   12 1   
    15   11   17 1   
    16   11   18 1   
    17   12   13 1   
    18   12   14 1   
    19   19   20 1   
    20   19   27 1   
    21   20   21 1   
    22   20   23 1   
    23   20   28 1   
    24   21   22 2   
    25   21   38 1   
    26   23   24 1   
    27   23   25 1   
    28   23   29 1   
    29   24   26 1   
    30   24   30 1   
    31   24   31 1   
    32   25   32 1   
    33   25   33 1   
    34   25   34 1   
    35   26   35 1   
    36   26   36 1   
    37   26   37 1   
    38   38   39 1   
    39   38   46 1   
    40   39   40 1   
    41   39   42 1   
    42   39   47 1   
    43   40   41 2   
    44   40   50 1   
    45   42   43 1   
    46   42   48 1   
    47   42   49 1   
    48   43   44 1   
    49   43   45 1   
    50   50   51 1   
    51   50   54 1   
    52   51   52 1   
    53   51   55 1   
    54   51   56 1   
    55   52   53 2   
    56   52   57 1   
    57   57   58 1   
    58   57   65 1   
    59   58   59 1   
    60   58   61 1   
    61   58   66 1   
    62   59   60 2   
    63   59   69 1   
    64   61   62 1   
    65   61   67 1   
    66   61   68 1   
    67   62   63 1   
    68   62   64 1   
    69   69   70 1   
    70   69   73 1   
    71   70   71 1   
    72   70   74 1   
    73   70   75 1   
    74   71   72 2   
    75   71   76 1   
    76   76   77 1   
    77   76   85 1   
    78   77   78 1   
    79   77   80 1   
    80   77   86 1   
    81   78   79 2   
    82   78   93 1   
    83   80   81 1   
    84   80   87 1   
    85   80   88 1   
    86   81   82 1   
    87   81   89 1   
    88   81   90 1   
    89   82   83 1   
    90   82   84 2   
    91   83   91 1   
    92   83   92 1   
    93   93   94 1   
    94   93  100 1   
    95   94   95 1   
    96   94   97 1   
    97   94  101 1   
    98   95   96 2   
    99   95  109 1   
   100   97   98 1   
   101   97   99 1   
   102   97  102 1   
   103   98  103 1   
   104   98  104 1   
   105   98  105 1   
   106   99  106 1   
   107   99  107 1   
   108   99  108 1   
   109  109  110 1   
   110  109  117 1   
   111  110  111 1   
   112  110  113 1   
   113  110  118 1   
   114  111  112 2   
   115  111  123 1   
   116  113  114 1   
   117  113  119 1   
   118  113  120 1   
   119  114  115 1   
   120  114  116 2   
   121  115  121 1   
   122  115  122 1   
   123  123  124 1   
   124  123  135 1   
   125  124  125 1   
   126  124  127 1   
   127  124  136 1   
   128  125  126 2   
   129  125  144 1   
   130  127  128 1   
   131  127  137 1   
   132  127  138 1   
   133  128  129 ar  
   134  128  130 ar  
   135  129  131 ar  
   136  129  139 1   
   137  130  132 ar  
   138  130  140 1   
   139  131  133 ar  
   140  131  141 1   
   141  132  133 ar  
   142  132  142 1   
   143  133  134 1   
   144  134  143 1   
   145  144  145 1   
   146  144  153 1   
   147  145  146 1   
   148  145  148 1   
   149  145  154 1   
   150  146  147 2   
   151  146  159 1   
   152  148  149 1   
   153  148  155 1   
   154  148  156 1   
   155  149  150 1   
   156  149  157 1   
   157  149  158 1   
   158  150  151 1   
   159  150  152 1   
   160  159  160 1   
   161  159  168 1   
   162  160  161 1   
   163  160  163 1   
   164  160  169 1   
   165  161  162 2   
   166  161  174 1   
   167  163  164 1   
   168  163  170 1   
   169  163  171 1   
   170  164  165 1   
   171  164  172 1   
   172  164  173 1   
   173  165  166 1   
   174  165  167 1   
   175  174  175 1   
   176  174  179 1   
   177  175  176 1   
   178  175  177 1   
   179  175  178 1   
   180  181  182 1   
   181  181  183 1   
   182  184  185 1   
   183  184  186 1   
@<TRIPOS>SUBSTRUCTURE
     1 MOL         1 TEMP              0 ****  ****    0 ROOT
