@<TRIPOS>MOLECULE
MOL
  186   183     1     0     0
SMALL
resp


@<TRIPOS>ATOM
      1 C1          0.7690   -0.9060    6.7190 c3        1 MOL     -0.276849
      2 C2          0.9450   -1.2710    5.2460 c         1 MOL      0.793752
      3 O1          0.0300   -1.8160    4.6400 o         1 MOL     -0.598241
      4 H1         -0.2940   -0.8770    6.9610 hc        1 MOL      0.056680
      5 H2          1.2620   -1.6530    7.3410 hc        1 MOL      0.056680
      6 H3          1.2100    0.0730    6.9060 hc        1 MOL      0.056680
      7 N1          2.0630   -0.8620    4.5970 n         1 MOL     -0.684180
      8 C3          2.5580   -1.1190    3.2490 c3        1 MOL      0.172042
      9 C4          2.8420   -2.6150    3.1360 c         1 MOL      0.526385
     10 O2          3.3050   -3.2230    4.0860 o         1 MOL     -0.589034
     11 C5          3.8050   -0.2440    3.0780 c3        1 MOL     -0.380175
     12 C6          4.5380   -0.4180    1.7540 c         1 MOL      0.904611
     13 O3          5.6950    0.0600    1.6080 o         1 MOL     -0.751085
     14 O4          3.8470   -0.8550    0.7580 o         1 MOL     -0.751085
     15 H4          2.7730   -0.4370    5.1590 hn        1 MOL      0.316103
     16 H5          1.7690   -0.7550    2.5960 h1        1 MOL      0.070914
     17 H6          4.5250   -0.5810    3.8280 hc        1 MOL      0.092951
     18 H7          3.6340    0.8020    3.3100 hc        1 MOL      0.092951
     19 N2          2.5330   -3.1780    2.0010 n         1 MOL     -0.153764
     20 C7          2.6850   -4.6620    1.7880 c3        1 MOL     -0.044769
     21 C8          3.8050   -4.9550    0.7330 c         1 MOL      0.509206
     22 O5          4.7000   -5.7490    0.9270 o         1 MOL     -0.574969
     23 C9          1.3660   -5.4420    1.5030 c3        1 MOL      0.215598
     24 C10         0.2260   -4.7800    2.2410 c3        1 MOL     -0.079055
     25 C11         1.7150   -6.8770    2.0600 c3        1 MOL     -0.432860
     26 C12        -1.1250   -5.4470    1.9960 c3        1 MOL     -0.184197
     27 H8          2.1590   -2.5390    1.3060 hn        1 MOL     -0.010365
     28 H9          3.0460   -5.0660    2.7400 h1        1 MOL      0.069223
     29 H10         1.1130   -5.3320    0.4450 hc        1 MOL      0.002254
     30 H11         0.0860   -3.7180    2.0510 hc        1 MOL      0.069771
     31 H12         0.3470   -4.7010    3.3230 hc        1 MOL      0.069771
     32 H13         1.7290   -6.9060    3.1470 hc        1 MOL      0.095957
     33 H14         0.9760   -7.5570    1.6440 hc        1 MOL      0.095957
     34 H15         2.7030   -7.1750    1.7000 hc        1 MOL      0.095957
     35 H16        -1.3420   -5.2900    0.9380 hc        1 MOL      0.043110
     36 H17        -1.2150   -6.5230    2.1280 hc        1 MOL      0.043110
     37 H18        -1.9680   -5.1490    2.6190 hc        1 MOL      0.043110
     38 N3          3.8390   -4.2850   -0.4120 n         1 MOL     -0.301980
     39 C13         4.5300   -4.7530   -1.6240 c3        1 MOL     -0.037597
     40 C14         5.9710   -4.1530   -1.6780 c         1 MOL      0.407083
     41 O6          6.8980   -4.5900   -2.3120 o         1 MOL     -0.565378
     42 C15         3.7370   -4.5220   -2.8960 c3        1 MOL     -0.105814
     43 C16         3.1180   -3.1080   -3.0960 c         1 MOL      0.683340
     44 O7          2.1150   -3.1090   -3.8030 o         1 MOL     -0.655709
     45 O8          3.6140   -2.1190   -2.4890 o         1 MOL     -0.655709
     46 H19         3.1790   -3.5560   -0.6420 hn        1 MOL      0.243054
     47 H20         4.6570   -5.8430   -1.6510 h1        1 MOL      0.087657
     48 H21         2.9550   -5.2580   -3.0680 hc        1 MOL      0.032221
     49 H22         4.4000   -4.6950   -3.7400 hc        1 MOL      0.032221
     50 N4          6.1200   -3.0640   -0.9200 n         1 MOL      0.042813
     51 C17         7.3470   -2.3140   -0.7060 c3        1 MOL     -0.254588
     52 C18         7.3280   -1.0520   -1.5630 c         1 MOL      0.646521
     53 O9          7.6330   -1.0780   -2.7390 o         1 MOL     -0.527252
     54 H23         5.2860   -2.8220   -0.3980 hn        1 MOL      0.083817
     55 H24         8.2040   -2.9010   -1.0210 h1        1 MOL      0.077067
     56 H25         7.3810   -2.1450    0.3720 h1        1 MOL      0.077067
     57 N5          6.9950    0.1390   -0.9400 n         1 MOL     -0.563982
     58 C19         7.3220    1.5270   -1.6220 c3        1 MOL     -0.012636
     59 C20         7.1020    2.7450   -0.6870 c         1 MOL      0.450698
     60 O10         7.1570    3.8480   -1.1880 o         1 MOL     -0.542496
     61 C21         6.3730    1.7020   -2.8350 c3        1 MOL     -0.103989
     62 C22         4.9150    1.5020   -2.4830 c         1 MOL      0.768215
     63 O11         4.2100    0.8860   -3.3050 o         1 MOL     -0.775213
     64 O12         4.4340    1.6480   -1.3460 o         1 MOL     -0.775213
     65 H26         6.8140    0.1220    0.0470 hn        1 MOL      0.290026
     66 H27         8.3570    1.5090   -1.9750 h1        1 MOL      0.079788
     67 H28         6.7030    1.0400   -3.6360 hc        1 MOL      0.042192
     68 H29         6.5060    2.7070   -3.2390 hc        1 MOL      0.042192
     69 N6          6.7750    2.5730    0.5900 n         1 MOL     -0.317238
     70 C23         6.5400    3.7270    1.4480 c3        1 MOL     -0.161015
     71 C24         5.1770    4.3990    1.2940 c         1 MOL      0.505624
     72 O13         4.8670    5.3590    2.0380 o         1 MOL     -0.619880
     73 H30         6.6880    1.6440    0.9960 hn        1 MOL      0.299577
     74 H31         7.3480    4.4330    1.2650 h1        1 MOL      0.094443
     75 H32         6.6070    3.4570    2.5060 h1        1 MOL      0.094443
     76 N7          4.3050    3.9860    0.3710 n         1 MOL     -0.161909
     77 C25         3.0000    4.4380    0.1900 c3        1 MOL     -0.063555
     78 C26         1.9960    3.3650    0.6440 c         1 MOL      0.577388
     79 O14         2.1450    2.1740    0.3050 o         1 MOL     -0.616966
     80 C27         2.7980    4.8000   -1.3140 c3        1 MOL      0.206349
     81 C28         3.3310    6.2180   -1.6790 c3        1 MOL     -0.257277
     82 C29         2.9520    7.3940   -0.8450 c         1 MOL      0.566889
     83 N8          3.8410    8.2860   -0.5180 n         1 MOL     -0.659248
     84 O15         1.8120    7.4790   -0.4470 o         1 MOL     -0.556273
     85 H33         4.5590    3.1930   -0.1890 hn        1 MOL      0.228525
     86 H34         2.7030    5.3650    0.6820 h1        1 MOL      0.093372
     87 H35         1.7530    4.8800   -1.6260 hc        1 MOL      0.004789
     88 H36         3.3260    4.0880   -1.9390 hc        1 MOL      0.004789
     89 H37         3.1320    6.3990   -2.7360 hc        1 MOL      0.044304
     90 H38         4.4020    6.0070   -1.6740 hc        1 MOL      0.044304
     91 H39         4.7570    8.1830   -0.9340 hn        1 MOL      0.324156
     92 H40         3.4480    9.1240   -0.1340 hn        1 MOL      0.324156
     93 N9          0.8680    3.8180    1.2000 n         1 MOL     -0.652862
     94 C30        -0.2740    2.9750    1.6850 c3        1 MOL      0.293702
     95 C31        -1.5560    3.1750    0.7940 c         1 MOL      0.387020
     96 O16        -2.2750    4.1470    1.0640 o         1 MOL     -0.572072
     97 C32        -0.5280    3.1730    3.2000 c3        1 MOL      0.215698
     98 C33        -1.8840    2.4680    3.6450 c3        1 MOL     -0.281029
     99 C34         0.5600    2.4810    3.9890 c3        1 MOL     -0.281029
    100 H41         0.8550    4.8070    1.4190 hn        1 MOL      0.317314
    101 H42        -0.1070    1.9070    1.5520 h1        1 MOL      0.043221
    102 H43        -0.6010    4.2460    3.3890 hc        1 MOL     -0.025273
    103 H44        -2.6620    2.8370    2.9700 hc        1 MOL      0.055694
    104 H45        -1.8730    1.3810    3.5560 hc        1 MOL      0.055694
    105 H46        -2.1310    2.8150    4.6480 hc        1 MOL      0.055694
    106 H47         0.3140    2.6130    5.0350 hc        1 MOL      0.055694
    107 H48         0.6580    1.4160    3.7760 hc        1 MOL      0.055694
    108 H49         1.5110    3.0020    3.9120 hc        1 MOL      0.055694
    109 N10        -1.7530    2.3380   -0.1900 n         1 MOL     -0.205738
    110 C35        -2.8560    2.4640   -1.1600 c3        1 MOL      0.012288
    111 C36        -4.1350    2.2520   -0.3780 c         1 MOL      0.430070
    112 O17        -4.0620    1.7390    0.7190 o         1 MOL     -0.352430
    113 C37        -2.7480    1.3450   -2.2690 c3        1 MOL     -0.367898
    114 C38        -3.7430    1.4540   -3.3710 c         1 MOL      0.781051
    115 N11        -3.8940    2.6510   -3.8990 n         1 MOL     -0.813716
    116 O18        -4.4460    0.5320   -3.7320 o         1 MOL     -0.544178
    117 H50        -1.0880    1.5810   -0.2500 hn        1 MOL      0.233039
    118 H51        -2.7980    3.4030   -1.7130 h1        1 MOL      0.054387
    119 H52        -2.8340    0.3650   -1.8080 hc        1 MOL      0.123666
    120 H53        -1.7320    1.3160   -2.6710 hc        1 MOL      0.123666
    121 H54        -3.5180    3.4550   -3.4180 hn        1 MOL      0.359506
    122 H55        -4.5840    2.8270   -4.6120 hn        1 MOL      0.359506
    123 N12        -5.2980    2.5360   -1.0020 n         1 MOL     -0.533490
    124 C39        -6.5490    1.9890   -0.4210 c3        1 MOL      0.261050
    125 C40        -6.6050    0.4860   -0.3380 c         1 MOL      0.699890
    126 O19        -7.0010   -0.1220    0.6590 o         1 MOL     -0.533331
    127 C41        -7.6630    2.5880   -1.2370 c3        1 MOL     -0.063925
    128 C42        -8.9640    2.2180   -0.7180 ca        1 MOL     -0.081170
    129 C43        -9.3820    2.8310    0.4790 ca        1 MOL     -0.102844
    130 C44        -9.7710    1.2510   -1.3030 ca        1 MOL     -0.102844
    131 C45       -10.5390    2.3890    1.1200 ca        1 MOL     -0.313102
    132 C46       -10.9690    0.8530   -0.7520 ca        1 MOL     -0.313102
    133 C47       -11.3260    1.3940    0.4970 ca        1 MOL      0.398359
    134 O20       -12.4200    0.8920    1.1100 oh        1 MOL     -0.529647
    135 H56        -5.2160    2.9680   -1.9100 hn        1 MOL      0.231625
    136 H57        -6.6180    2.3630    0.5970 h1        1 MOL      0.022561
    137 H58        -7.5820    2.2180   -2.2670 hc        1 MOL      0.037088
    138 H59        -7.6030    3.6730   -1.2620 hc        1 MOL      0.037088
    139 H60        -8.8860    3.7210    0.8290 ha        1 MOL      0.125643
    140 H61        -9.5190    0.8510   -2.2820 ha        1 MOL      0.125643
    141 H62       -10.8520    2.8220    2.0620 ha        1 MOL      0.158934
    142 H63       -11.5680    0.0920   -1.2320 ha        1 MOL      0.158934
    143 H64       -12.7360    0.1170    0.6230 ho        1 MOL      0.375421
    144 N13        -6.0240   -0.2780   -1.3050 n         1 MOL     -0.611139
    145 C48        -6.0860   -1.7500   -1.2370 c3        1 MOL      0.006438
    146 C49        -5.2480   -2.3170   -0.0460 c         1 MOL      0.290233
    147 O21        -5.5980   -3.3730    0.5090 o         1 MOL     -0.485751
    148 C50        -5.6200   -2.3620   -2.5540 c3        1 MOL      0.072014
    149 C51        -5.7540   -3.8660   -2.7230 c3        1 MOL     -0.292161
    150 C52        -5.4700   -4.4520   -4.1710 c         1 MOL      0.745996
    151 O22        -6.4100   -4.9780   -4.7800 o         1 MOL     -0.745854
    152 O23        -4.3390   -4.4050   -4.6940 o         1 MOL     -0.745854
    153 H65        -5.4570    0.1120   -2.0410 hn        1 MOL      0.250373
    154 H66        -7.1370   -1.9820   -1.0560 h1        1 MOL      0.103643
    155 H67        -4.5660   -2.1570   -2.7480 hc        1 MOL      0.017837
    156 H68        -6.2100   -1.9350   -3.3640 hc        1 MOL      0.017837
    157 H69        -6.7970   -4.0800   -2.5110 hc        1 MOL      0.035940
    158 H70        -5.1570   -4.4250   -1.9920 hc        1 MOL      0.035940
    159 N14        -4.1840   -1.5820    0.3260 n         1 MOL      0.010358
    160 C53        -3.3840   -2.0200    1.4890 c3        1 MOL     -0.251055
    161 C54        -4.0800   -1.6990    2.7650 c         1 MOL      0.495366
    162 O24        -3.9670   -2.4170    3.7780 o         1 MOL     -0.556978
    163 C55        -2.0050   -1.4230    1.4040 c3        1 MOL      0.392626
    164 C56        -1.4120   -1.7910    0.0160 c3        1 MOL      0.083453
    165 C57        -0.0250   -1.1610   -0.1370 c         1 MOL      0.544968
    166 O25         0.8590   -1.9580   -0.2280 o         1 MOL     -0.635475
    167 O26         0.1220    0.0840   -0.2480 o         1 MOL     -0.635475
    168 H71        -3.8980   -0.7060   -0.0990 hn        1 MOL      0.168345
    169 H72        -3.1630   -3.0930    1.4290 h1        1 MOL      0.104707
    170 H73        -1.3690   -1.7600    2.2280 hc        1 MOL     -0.089686
    171 H74        -2.0660   -0.3340    1.4400 hc        1 MOL     -0.089686
    172 H75        -2.0210   -1.5260   -0.8420 hc        1 MOL     -0.032715
    173 H76        -1.4250   -2.8610   -0.1690 hc        1 MOL     -0.032715
    174 N15        -4.9370   -0.6450    2.7510 n         1 MOL     -0.041194
    175 C58        -5.7300   -0.2370    3.9410 c3        1 MOL     -0.335865
    176 H77        -6.7750   -0.1160    3.6570 h1        1 MOL      0.111799
    177 H78        -5.6510   -1.0030    4.7120 h1        1 MOL      0.111799
    178 H79        -5.3480    0.7080    4.3270 h1        1 MOL      0.111799
    179 H80        -5.0450   -0.0820    1.9210 hn        1 MOL      0.013873
    180 Ca1         2.6020   -0.0250   -1.3450 Ca        1 MOL      1.770765
    181 O27         0.8390   -0.7970   -3.4770 oh        1 MOL     -0.857431
    182 H81         0.0860   -0.6490   -4.0510 ho        1 MOL      0.394799
    183 H82         1.1560   -1.6650   -3.7200 ho        1 MOL      0.394799
    184 O28         1.1730    1.9240   -3.0820 oh        1 MOL     -0.857431
    185 H83         0.7770    1.3990   -3.7690 ho        1 MOL      0.394799
    186 H84         1.7710    2.5140   -3.5420 ho        1 MOL      0.394799
@<TRIPOS>BOND
     1    1    2 1   
     2    1    4 1   
     3    1    5 1   
     4    1    6 1   
     5    2    3 2   
     6    2    7 1   
     7    7    8 1   
     8    7   15 1   
     9    8    9 1   
    10    8   11 1   
    11    8   16 1   
    12    9   10 2   
    13    9   19 1   
    14   11   12 1   
    15   11   17 1   
    16   11   18 1   
    17   12   13 1   
    18   12   14 1   
    19   19   20 1   
    20   19   27 1   
    21   20   21 1   
    22   20   23 1   
    23   20   28 1   
    24   21   22 2   
    25   21   38 1   
    26   23   24 1   
    27   23   25 1   
    28   23   29 1   
    29   24   26 1   
    30   24   30 1   
    31   24   31 1   
    32   25   32 1   
    33   25   33 1   
    34   25   34 1   
    35   26   35 1   
    36   26   36 1   
    37   26   37 1   
    38   38   39 1   
    39   38   46 1   
    40   39   40 1   
    41   39   42 1   
    42   39   47 1   
    43   40   41 2   
    44   40   50 1   
    45   42   43 1   
    46   42   48 1   
    47   42   49 1   
    48   43   44 1   
    49   43   45 1   
    50   50   51 1   
    51   50   54 1   
    52   51   52 1   
    53   51   55 1   
    54   51   56 1   
    55   52   53 2   
    56   52   57 1   
    57   57   58 1   
    58   57   65 1   
    59   58   59 1   
    60   58   61 1   
    61   58   66 1   
    62   59   60 2   
    63   59   69 1   
    64   61   62 1   
    65   61   67 1   
    66   61   68 1   
    67   62   63 1   
    68   62   64 1   
    69   69   70 1   
    70   69   73 1   
    71   70   71 1   
    72   70   74 1   
    73   70   75 1   
    74   71   72 2   
    75   71   76 1   
    76   76   77 1   
    77   76   85 1   
    78   77   78 1   
    79   77   80 1   
    80   77   86 1   
    81   78   79 2   
    82   78   93 1   
    83   80   81 1   
    84   80   87 1   
    85   80   88 1   
    86   81   82 1   
    87   81   89 1   
    88   81   90 1   
    89   82   83 1   
    90   82   84 2   
    91   83   91 1   
    92   83   92 1   
    93   93   94 1   
    94   93  100 1   
    95   94   95 1   
    96   94   97 1   
    97   94  101 1   
    98   95   96 2   
    99   95  109 1   
   100   97   98 1   
   101   97   99 1   
   102   97  102 1   
   103   98  103 1   
   104   98  104 1   
   105   98  105 1   
   106   99  106 1   
   107   99  107 1   
   108   99  108 1   
   109  109  110 1   
   110  109  117 1   
   111  110  111 1   
   112  110  113 1   
   113  110  118 1   
   114  111  112 2   
   115  111  123 1   
   116  113  114 1   
   117  113  119 1   
   118  113  120 1   
   119  114  115 1   
   120  114  116 2   
   121  115  121 1   
   122  115  122 1   
   123  123  124 1   
   124  123  135 1   
   125  124  125 1   
   126  124  127 1   
   127  124  136 1   
   128  125  126 2   
   129  125  144 1   
   130  127  128 1   
   131  127  137 1   
   132  127  138 1   
   133  128  129 ar  
   134  128  130 ar  
   135  129  131 ar  
   136  129  139 1   
   137  130  132 ar  
   138  130  140 1   
   139  131  133 ar  
   140  131  141 1   
   141  132  133 ar  
   142  132  142 1   
   143  133  134 1   
   144  134  143 1   
   145  144  145 1   
   146  144  153 1   
   147  145  146 1   
   148  145  148 1   
   149  145  154 1   
   150  146  147 2   
   151  146  159 1   
   152  148  149 1   
   153  148  155 1   
   154  148  156 1   
   155  149  150 1   
   156  149  157 1   
   157  149  158 1   
   158  150  151 1   
   159  150  152 1   
   160  159  160 1   
   161  159  168 1   
   162  160  161 1   
   163  160  163 1   
   164  160  169 1   
   165  161  162 2   
   166  161  174 1   
   167  163  164 1   
   168  163  170 1   
   169  163  171 1   
   170  164  165 1   
   171  164  172 1   
   172  164  173 1   
   173  165  166 1   
   174  165  167 1   
   175  174  175 1   
   176  174  179 1   
   177  175  176 1   
   178  175  177 1   
   179  175  178 1   
   180  181  182 1   
   181  181  183 1   
   182  184  185 1   
   183  184  186 1   
@<TRIPOS>SUBSTRUCTURE
     1 MOL         1 TEMP              0 ****  ****    0 ROOT
