@<TRIPOS>MOLECULE
MOL
  175   173     1     0     0
SMALL
resp


@<TRIPOS>ATOM
      1 C1          0.3920    5.1980    5.1400 c3        1 MOL     -0.316808
      2 C2         -0.1290    4.7050    3.7780 c         1 MOL      0.769176
      3 O1          0.6810    4.6030    2.8560 o         1 MOL     -0.589181
      4 H1          0.5700    4.3410    5.7910 hc        1 MOL      0.071426
      5 H2          1.3230    5.7450    4.9980 hc        1 MOL      0.071426
      6 H3         -0.3490    5.8530    5.5970 hc        1 MOL      0.071426
      7 N1         -1.3930    4.3520    3.6640 n         1 MOL     -0.691570
      8 C3         -2.0380    3.8880    2.4020 c3        1 MOL      0.202406
      9 C4         -2.0160    4.9460    1.3290 c         1 MOL      0.710263
     10 O2         -2.1820    6.1170    1.6180 o         1 MOL     -0.581764
     11 C5         -3.4940    3.5590    2.7140 c3        1 MOL     -0.404197
     12 C6         -4.2400    2.7380    1.5560 c         1 MOL      0.661855
     13 O3         -3.5410    2.1050    0.6920 o         1 MOL     -0.624231
     14 O4         -5.5050    2.6600    1.5780 o         1 MOL     -0.624231
     15 H4         -1.9190    4.2370    4.5220 hn        1 MOL      0.335251
     16 H5         -1.4490    3.0470    2.0420 h1        1 MOL      0.043115
     17 H6         -3.9100    4.5580    2.8330 hc        1 MOL      0.095490
     18 H7         -3.5240    3.1080    3.7060 hc        1 MOL      0.095490
     19 N2         -1.7500    4.4450    0.0610 n         1 MOL     -0.717890
     20 C7         -1.6490    5.2280   -1.1620 c3        1 MOL      0.383967
     21 C8         -2.6520    4.6820   -2.2540 c         1 MOL      0.405632
     22 O5         -2.7430    5.2800   -3.3240 o         1 MOL     -0.564531
     23 C9         -0.1530    5.1640   -1.5230 c3        1 MOL     -0.235601
     24 H8         -1.6610    3.4490   -0.0800 hn        1 MOL      0.383088
     25 H9         -2.0000    6.2480   -1.0240 h1        1 MOL     -0.004973
     26 H10         0.4970    5.3540   -0.6660 hc        1 MOL      0.053178
     27 H11        -0.0370    4.1870   -1.9870 hc        1 MOL      0.053178
     28 H12         0.0560    5.9490   -2.2560 hc        1 MOL      0.053178
     29 N3         -3.4340    3.5960   -2.0100 n         1 MOL     -0.251530
     30 C10        -4.4800    3.1680   -3.0360 c3        1 MOL      0.120124
     31 C11        -5.8620    2.6170   -2.4710 c         1 MOL      0.274885
     32 O6         -6.8550    2.5360   -3.1890 o         1 MOL     -0.510448
     33 C12        -4.0030    2.1590   -4.0190 c3        1 MOL     -0.297579
     34 C13        -3.3330    0.9450   -3.4550 c         1 MOL      0.737176
     35 O7         -3.5580    0.6240   -2.2320 o         1 MOL     -0.684206
     36 O8         -2.6090    0.2130   -4.1840 o         1 MOL     -0.684206
     37 H13        -3.3610    3.1640   -1.1000 hn        1 MOL      0.099866
     38 H14        -4.7780    4.0300   -3.6300 h1        1 MOL      0.076066
     39 H15        -3.1900    2.6990   -4.5030 hc        1 MOL      0.081116
     40 H16        -4.8350    1.9120   -4.6850 hc        1 MOL      0.081116
     41 N4         -5.9510    2.1270   -1.2390 n         1 MOL     -0.152999
     42 C14        -7.0810    1.2680   -0.7290 c3        1 MOL     -0.068543
     43 C15        -7.1980   -0.1510   -1.3900 c         1 MOL      0.455826
     44 O9         -8.3280   -0.5670   -1.6680 o         1 MOL     -0.586168
     45 H17        -5.1770    2.2780   -0.6070 hn        1 MOL      0.151121
     46 H18        -8.0710    1.6980   -0.8760 h1        1 MOL      0.059576
     47 H19        -6.9580    1.2360    0.3580 h1        1 MOL      0.059576
     48 N5         -6.0670   -0.8120   -1.4860 n         1 MOL     -0.194977
     49 C16        -6.0310   -2.2190   -2.0550 c3        1 MOL     -0.120413
     50 C17        -6.1040   -3.1950   -0.9120 c         1 MOL      0.427936
     51 O10        -5.8700   -4.3840   -1.1250 o         1 MOL     -0.502449
     52 C18        -4.7870   -2.3450   -2.9780 c3        1 MOL      0.077756
     53 C19        -3.4970   -2.5070   -2.1820 c         1 MOL      0.387793
     54 N6         -2.4870   -3.0860   -2.7550 n         1 MOL     -0.561438
     55 O11        -3.3130   -2.1530   -1.0260 o         1 MOL     -0.358409
     56 H20        -5.2090   -0.2940   -1.4170 hn        1 MOL      0.312759
     57 H21        -6.8710   -2.4140   -2.7210 h1        1 MOL      0.119344
     58 H22        -4.6840   -1.5050   -3.6630 hc        1 MOL      0.008187
     59 H23        -4.8850   -3.2340   -3.6050 hc        1 MOL      0.008187
     60 H24        -2.6340   -3.3090   -3.7270 hn        1 MOL      0.318371
     61 H25        -1.5520   -2.8550   -2.4490 hn        1 MOL      0.318371
     62 N7         -6.2320   -2.7200    0.3410 n         1 MOL     -0.196518
     63 C20        -6.3350   -3.6680    1.4540 c3        1 MOL     -0.423222
     64 C21        -5.0210   -4.2580    2.0110 c         1 MOL      0.568621
     65 O12        -5.1180   -5.1100    2.9170 o         1 MOL     -0.585933
     66 H26        -6.2140   -1.7190    0.4960 hn        1 MOL      0.177399
     67 H27        -6.8930   -4.5780    1.2520 h1        1 MOL      0.177386
     68 H28        -6.7360   -3.1090    2.3070 h1        1 MOL      0.177386
     69 N8         -3.8510   -3.8590    1.4490 n         1 MOL     -0.342221
     70 C22        -2.5640   -4.4560    1.8000 c3        1 MOL     -0.035398
     71 C23        -1.5250   -3.3300    1.8330 c         1 MOL      0.573811
     72 O13        -1.7170   -2.2280    1.2850 o         1 MOL     -0.714747
     73 C24        -2.1960   -5.5420    0.7560 c3        1 MOL      0.530281
     74 C25        -3.0260   -6.7840    0.9800 c3        1 MOL     -0.502179
     75 O14        -2.5180   -5.1260   -0.5820 oh        1 MOL     -0.620046
     76 H29        -3.8570   -3.1250    0.7590 hn        1 MOL      0.223624
     77 H30        -2.5700   -4.8500    2.8090 h1        1 MOL      0.050302
     78 H31        -1.1550   -5.7660    0.9760 h1        1 MOL     -0.081235
     79 H32        -2.1400   -4.2800   -0.8260 ho        1 MOL      0.336888
     80 H33        -2.6620   -7.6830    0.4840 hc        1 MOL      0.130843
     81 H34        -3.0760   -6.9720    2.0510 hc        1 MOL      0.130843
     82 H35        -4.0350   -6.6820    0.5720 hc        1 MOL      0.130843
     83 N9         -0.4420   -3.4950    2.5370 n         1 MOL     -0.381599
     84 C26         0.6690   -2.5380    2.5160 c3        1 MOL     -0.005618
     85 C27         1.4960   -3.0120    1.2830 c         1 MOL      0.494137
     86 O15         1.8550   -4.1590    1.1570 o         1 MOL     -0.570851
     87 C28         1.4800   -2.6350    3.8230 c3        1 MOL     -0.004627
     88 C29         0.7220   -1.9110    4.9090 c3        1 MOL     -0.205956
     89 C30         2.8990   -2.0360    3.7830 c3        1 MOL     -0.086771
     90 C31         0.7870   -0.3720    4.9090 c3        1 MOL     -0.257881
     91 H36        -0.3290   -4.3350    3.0900 hn        1 MOL      0.248574
     92 H37         0.2620   -1.5320    2.5360 h1        1 MOL      0.211633
     93 H38         1.6040   -3.6650    4.1510 hc        1 MOL      0.043017
     94 H39         1.0950   -2.2570    5.8750 hc        1 MOL      0.061540
     95 H40        -0.3290   -2.1970    4.8410 hc        1 MOL      0.061540
     96 H41         3.4280   -1.8070    4.7120 hc        1 MOL      0.021936
     97 H42         3.5660   -2.6720    3.2030 hc        1 MOL      0.021936
     98 H43         2.9390   -1.1420    3.1700 hc        1 MOL      0.021936
     99 H44         0.3910    0.0740    5.8170 hc        1 MOL      0.073687
    100 H45         1.7970    0.0210    4.8820 hc        1 MOL      0.073687
    101 H46         0.3940    0.0570    3.9850 hc        1 MOL      0.073687
    102 N10         1.7800   -2.0230    0.4840 n         1 MOL     -0.190511
    103 C32         2.6550   -2.0530   -0.7250 c3        1 MOL     -0.043245
    104 C33         4.0960   -1.6470   -0.4150 c         1 MOL      0.546188
    105 O16         4.3960   -1.1700    0.6450 o         1 MOL     -0.382113
    106 C34         2.0420   -1.3020   -1.8710 c3        1 MOL     -0.381468
    107 C35         0.5710   -1.6820   -2.0930 c         1 MOL      0.813899
    108 O17        -0.3640   -1.1540   -1.4730 o         1 MOL     -0.704422
    109 O18         0.3150   -2.5650   -2.9670 o         1 MOL     -0.704422
    110 H47         1.4460   -1.1170    0.7540 hn        1 MOL      0.262046
    111 H48         2.8830   -3.0830   -0.9840 h1        1 MOL      0.082815
    112 H49         2.6200   -1.4330   -2.7830 hc        1 MOL      0.106144
    113 H50         2.1320   -0.2170   -1.7660 hc        1 MOL      0.106144
    114 N11         4.9050   -1.8890   -1.4090 n         1 MOL     -0.685873
    115 C36         6.3410   -1.6310   -1.2830 c3        1 MOL      0.434929
    116 C37         6.6450   -0.0880   -1.2180 c         1 MOL      0.358861
    117 O19         7.4190    0.2530   -0.2850 o         1 MOL     -0.490824
    118 C38         7.2150   -2.4010   -2.3540 c3        1 MOL     -0.260287
    119 C39         8.6980   -2.1830   -2.1580 ca        1 MOL      0.159824
    120 C40         9.2750   -2.4370   -0.9280 ca        1 MOL     -0.217734
    121 C41         9.5980   -1.6690   -3.1770 ca        1 MOL     -0.217734
    122 C42        10.6260   -2.1500   -0.6400 ca        1 MOL     -0.099739
    123 C43        10.9710   -1.5010   -2.8510 ca        1 MOL     -0.099739
    124 C44        11.4990   -1.5760   -1.5830 ca        1 MOL     -0.080649
    125 H51         4.5660   -2.3100   -2.2580 hn        1 MOL      0.351029
    126 H52         6.6860   -2.0020   -0.3180 h1        1 MOL      0.033867
    127 H53         6.8620   -2.1140   -3.3460 hc        1 MOL      0.075615
    128 H54         7.0780   -3.4800   -2.2520 hc        1 MOL      0.075615
    129 H55         8.6810   -2.9440   -0.1930 ha        1 MOL      0.126161
    130 H56         9.2370   -1.5300   -4.1770 ha        1 MOL      0.126161
    131 H57        11.0480   -2.3630    0.3300 ha        1 MOL      0.097983
    132 H58        11.6490   -1.1790   -3.6300 ha        1 MOL      0.097983
    133 H59        12.5560   -1.5590   -1.3420 ha        1 MOL      0.097023
    134 N12         6.0200    0.8470   -1.9270 n         1 MOL     -0.204333
    135 C45         6.0550    2.2600   -1.6990 c3        1 MOL      0.100795
    136 C46         5.6420    2.6370   -0.3070 c         1 MOL      0.200978
    137 O20         6.2080    3.5830    0.2880 o         1 MOL     -0.493918
    138 C47         5.1280    2.8640   -2.7450 c3        1 MOL      0.022604
    139 C48         5.1410    1.8030   -3.8040 c3        1 MOL      0.013389
    140 C49         5.0750    0.6050   -2.9910 c3        1 MOL     -0.015836
    141 H60         7.0790    2.5910   -1.8640 h1        1 MOL      0.062676
    142 H61         4.1220    3.0220   -2.3570 hc        1 MOL      0.007653
    143 H62         5.5670    3.7950   -3.1160 hc        1 MOL      0.007653
    144 H63         4.3260    1.8460   -4.5340 hc        1 MOL      0.018184
    145 H64         6.0760    1.8630   -4.3630 hc        1 MOL      0.018184
    146 H65         4.0910    0.4110   -2.5750 h1        1 MOL      0.031534
    147 H66         5.3770   -0.2350   -3.6260 h1        1 MOL      0.031534
    148 N13         4.6770    1.9240    0.2610 n         1 MOL      0.073948
    149 C50         3.9690    2.2100    1.5040 c3        1 MOL     -0.120166
    150 C51         4.8400    1.6690    2.6990 c         1 MOL      0.403645
    151 O21         5.0060    2.3440    3.6950 o         1 MOL     -0.556025
    152 C52         2.5530    1.6960    1.4820 c3        1 MOL      0.168587
    153 C53         1.6990    2.0560    0.2780 c3        1 MOL     -0.043140
    154 C54         0.2380    1.4970    0.2340 c         1 MOL      0.401974
    155 O22         0.0320    0.5220    1.0480 o         1 MOL     -0.590667
    156 O23        -0.6010    1.8160   -0.6160 o         1 MOL     -0.590667
    157 H67         4.3820    1.1180   -0.2690 hn        1 MOL      0.058087
    158 H68         4.0120    3.2900    1.6700 h1        1 MOL      0.112834
    159 H69         2.0260    2.1310    2.3330 hc        1 MOL     -0.049820
    160 H70         2.4730    0.6060    1.5480 hc        1 MOL     -0.049820
    161 H71         2.2080    1.5600   -0.5440 hc        1 MOL      0.041445
    162 H72         1.7330    3.1200    0.0230 hc        1 MOL      0.041445
    163 N14         5.4920    0.5300    2.5270 n         1 MOL      0.071491
    164 C55         6.5610    0.0110    3.4170 c3        1 MOL     -0.309965
    165 H73         7.5020    0.5120    3.1860 h1        1 MOL      0.105576
    166 H74         6.2950    0.2030    4.4570 h1        1 MOL      0.105576
    167 H75         6.6740   -1.0620    3.2620 h1        1 MOL      0.105576
    168 H76         5.2720    0.0090    1.6850 hn        1 MOL     -0.023065
    169 Ca1        -2.2340   -0.0360   -0.0550 Ca        1 MOL      1.522511
    170 O24        -4.7960   -0.3820    1.3660 oh        1 MOL     -0.741403
    171 H77        -4.7990    0.5550    1.5280 ho        1 MOL      0.375433
    172 H78        -5.0440   -0.7670    2.2140 ho        1 MOL      0.375433
    173 O25        -1.9990    0.3390    2.6840 oh        1 MOL     -0.741403
    174 H79        -1.0460    0.3790    2.5760 ho        1 MOL      0.375433
    175 H80        -2.1470    0.5340    3.6050 ho        1 MOL      0.375433
@<TRIPOS>BOND
     1    1    2 1   
     2    1    4 1   
     3    1    5 1   
     4    1    6 1   
     5    2    3 2   
     6    2    7 1   
     7    7    8 1   
     8    7   15 1   
     9    8    9 1   
    10    8   11 1   
    11    8   16 1   
    12    9   10 2   
    13    9   19 1   
    14   11   12 1   
    15   11   17 1   
    16   11   18 1   
    17   12   13 1   
    18   12   14 1   
    19   19   20 1   
    20   19   24 1   
    21   20   21 1   
    22   20   23 1   
    23   20   25 1   
    24   21   22 2   
    25   21   29 1   
    26   23   26 1   
    27   23   27 1   
    28   23   28 1   
    29   29   30 1   
    30   29   37 1   
    31   30   31 1   
    32   30   33 1   
    33   30   38 1   
    34   31   32 2   
    35   31   41 1   
    36   33   34 1   
    37   33   39 1   
    38   33   40 1   
    39   34   35 1   
    40   34   36 1   
    41   41   42 1   
    42   41   45 1   
    43   42   43 1   
    44   42   46 1   
    45   42   47 1   
    46   43   44 2   
    47   43   48 1   
    48   48   49 1   
    49   48   56 1   
    50   49   50 1   
    51   49   52 1   
    52   49   57 1   
    53   50   51 2   
    54   50   62 1   
    55   52   53 1   
    56   52   58 1   
    57   52   59 1   
    58   53   54 1   
    59   53   55 2   
    60   54   60 1   
    61   54   61 1   
    62   62   63 1   
    63   62   66 1   
    64   63   64 1   
    65   63   67 1   
    66   63   68 1   
    67   64   65 2   
    68   64   69 1   
    69   69   70 1   
    70   69   76 1   
    71   70   71 1   
    72   70   73 1   
    73   70   77 1   
    74   71   72 2   
    75   71   83 1   
    76   73   74 1   
    77   73   75 1   
    78   73   78 1   
    79   74   80 1   
    80   74   81 1   
    81   74   82 1   
    82   75   79 1   
    83   83   84 1   
    84   83   91 1   
    85   84   85 1   
    86   84   87 1   
    87   84   92 1   
    88   85   86 2   
    89   85  102 1   
    90   87   88 1   
    91   87   89 1   
    92   87   93 1   
    93   88   90 1   
    94   88   94 1   
    95   88   95 1   
    96   89   96 1   
    97   89   97 1   
    98   89   98 1   
    99   90   99 1   
   100   90  100 1   
   101   90  101 1   
   102  102  103 1   
   103  102  110 1   
   104  103  104 1   
   105  103  106 1   
   106  103  111 1   
   107  104  105 2   
   108  104  114 1   
   109  106  107 1   
   110  106  112 1   
   111  106  113 1   
   112  107  108 1   
   113  107  109 1   
   114  114  115 1   
   115  114  125 1   
   116  115  116 1   
   117  115  118 1   
   118  115  126 1   
   119  116  117 2   
   120  116  134 1   
   121  118  119 1   
   122  118  127 1   
   123  118  128 1   
   124  119  120 ar  
   125  119  121 ar  
   126  120  122 ar  
   127  120  129 1   
   128  121  123 ar  
   129  121  130 1   
   130  122  124 ar  
   131  122  131 1   
   132  123  124 ar  
   133  123  132 1   
   134  124  133 1   
   135  134  135 1   
   136  134  140 1   
   137  135  136 1   
   138  135  138 1   
   139  135  141 1   
   140  136  137 2   
   141  136  148 1   
   142  138  139 1   
   143  138  142 1   
   144  138  143 1   
   145  139  140 1   
   146  139  144 1   
   147  139  145 1   
   148  140  146 1   
   149  140  147 1   
   150  148  149 1   
   151  148  157 1   
   152  149  150 1   
   153  149  152 1   
   154  149  158 1   
   155  150  151 2   
   156  150  163 1   
   157  152  153 1   
   158  152  159 1   
   159  152  160 1   
   160  153  154 1   
   161  153  161 1   
   162  153  162 1   
   163  154  155 1   
   164  154  156 1   
   165  163  164 1   
   166  163  168 1   
   167  164  165 1   
   168  164  166 1   
   169  164  167 1   
   170  170  171 1   
   171  170  172 1   
   172  173  174 1   
   173  173  175 1   
@<TRIPOS>SUBSTRUCTURE
     1 MOL         1 TEMP              0 ****  ****    0 ROOT
