@<TRIPOS>MOLECULE
MOL
  189   185     1     0     0
SMALL
resp


@<TRIPOS>ATOM
      1 C1         -0.3030    2.8250    5.4710 c3        1 MOL     -0.210359
      2 C2         -0.5590    2.3200    3.9870 c         1 MOL      0.670034
      3 O1          0.0710    2.8240    3.0810 o         1 MOL     -0.622483
      4 H1         -1.2570    3.0700    5.9400 hc        1 MOL      0.043340
      5 H2          0.1910    2.0400    6.0430 hc        1 MOL      0.043340
      6 H3          0.3290    3.7130    5.4490 hc        1 MOL      0.043340
      7 N1         -1.4120    1.3690    3.8740 n         1 MOL     -0.516913
      8 C3         -2.1230    1.1960    2.6170 c3        1 MOL      0.369190
      9 C4         -2.7230    2.5170    2.0900 c         1 MOL      0.326591
     10 O2         -3.6740    3.0420    2.5980 o         1 MOL     -0.525669
     11 C5         -3.2250    0.1950    2.7660 c3        1 MOL     -0.471488
     12 C6         -4.0950    0.0790    1.5380 c         1 MOL      0.836809
     13 O3         -3.6250    0.3350    0.4150 o         1 MOL     -0.659522
     14 O4         -5.2710   -0.3650    1.7110 o         1 MOL     -0.659522
     15 H4         -1.8110    0.9810    4.7190 hn        1 MOL      0.301385
     16 H5         -1.3550    0.8210    1.9330 h1        1 MOL     -0.049378
     17 H6         -3.7590    0.5520    3.6560 hc        1 MOL      0.094557
     18 H7         -2.7790   -0.7820    2.9040 hc        1 MOL      0.094557
     19 N2         -2.1800    3.0530    1.0070 n         1 MOL     -0.134140
     20 C7         -2.4540    4.3850    0.4850 c3        1 MOL     -0.029766
     21 C8         -3.6770    4.4570   -0.3550 c         1 MOL      0.506046
     22 O5         -4.2360    5.5070   -0.4510 o         1 MOL     -0.584973
     23 C9         -1.2550    5.0120   -0.2400 c3        1 MOL      0.110741
     24 C10        -1.1870    6.5180   -0.1590 c3        1 MOL     -0.067281
     25 C11        -0.9600    7.1330    1.2090 c3        1 MOL     -0.125303
     26 C12        -0.7890    8.6300    1.1350 c3        1 MOL      0.211140
     27 N3         -0.3820    9.2200    2.4300 n4        1 MOL     -0.468488
     28 H8         -1.4250    2.5330    0.5820 hn        1 MOL      0.194315
     29 H9         -2.6610    5.0360    1.3350 h1        1 MOL      0.060446
     30 H10        -1.1730    4.7600   -1.2960 hc        1 MOL      0.002253
     31 H11        -0.3460    4.6060    0.2130 hc        1 MOL      0.002253
     32 H12        -2.1090    6.8510   -0.6370 hc        1 MOL      0.026726
     33 H13        -0.4080    6.7760   -0.8780 hc        1 MOL      0.026726
     34 H14        -0.0520    6.7020    1.6290 hc        1 MOL      0.058258
     35 H15        -1.8300    6.8830    1.8210 hc        1 MOL      0.058258
     36 H16        -1.7210    9.0830    0.7940 hx        1 MOL      0.040594
     37 H17        -0.0730    8.8910    0.3450 hx        1 MOL      0.040594
     38 H18         0.5560    8.9490    2.6750 hn        1 MOL      0.351253
     39 H19        -0.5100   10.2230    2.4120 hn        1 MOL      0.351253
     40 H20        -1.0470    8.9580    3.1460 hn        1 MOL      0.351253
     41 N4         -4.0280    3.3910   -1.0110 n         1 MOL     -0.337466
     42 C13        -5.0220    3.2320   -2.1640 c3        1 MOL      0.141391
     43 C14        -6.2470    2.4380   -1.7810 c         1 MOL      0.413372
     44 O6         -7.2410    2.4720   -2.5050 o         1 MOL     -0.535309
     45 C15        -4.3780    2.8110   -3.5770 c3        1 MOL     -0.264028
     46 C16        -3.1260    1.9160   -3.5210 c         1 MOL      0.798474
     47 O7         -2.8320    1.2820   -2.4790 o         1 MOL     -0.749186
     48 O8         -2.3540    1.6600   -4.5090 o         1 MOL     -0.749186
     49 H21        -3.3560    2.6570   -0.8510 hn        1 MOL      0.184442
     50 H22        -5.4560    4.2290   -2.2630 h1        1 MOL      0.062254
     51 H23        -4.0560    3.7000   -4.1270 hc        1 MOL      0.073973
     52 H24        -5.2160    2.3520   -4.1060 hc        1 MOL      0.073973
     53 N5         -6.2240    1.6880   -0.6890 n         1 MOL     -0.155336
     54 C17        -7.3510    1.0320   -0.0760 c3        1 MOL     -0.305444
     55 C18        -7.5020   -0.3430   -0.5990 c         1 MOL      0.648806
     56 O9         -8.6460   -0.8070   -0.7340 o         1 MOL     -0.614937
     57 H25        -5.3740    1.4870   -0.1760 hn        1 MOL      0.183348
     58 H26        -8.2380    1.5670   -0.4150 h1        1 MOL      0.131943
     59 H27        -7.2120    0.9430    1.0010 h1        1 MOL      0.131943
     60 N6         -6.4170   -0.9640   -1.0360 n         1 MOL     -0.253222
     61 C19        -6.3770   -2.3470   -1.5130 c3        1 MOL     -0.037527
     62 C20        -6.0880   -3.3990   -0.3380 c         1 MOL      0.400997
     63 O10        -5.8300   -4.5910   -0.5650 o         1 MOL     -0.537876
     64 C21        -5.3530   -2.4690   -2.6730 c3        1 MOL     -0.273452
     65 C22        -3.8650   -2.2470   -2.2740 c         1 MOL      0.747070
     66 O11        -3.5030   -2.4900   -1.0960 o         1 MOL     -0.726500
     67 O12        -2.9830   -1.8830   -3.0820 o         1 MOL     -0.726500
     68 H28        -5.5680   -0.5180   -0.7380 hn        1 MOL      0.117286
     69 H29        -7.3250   -2.7000   -1.9080 h1        1 MOL      0.129327
     70 H30        -5.7230   -1.7830   -3.4420 hc        1 MOL      0.097174
     71 H31        -5.4780   -3.4260   -3.1690 hc        1 MOL      0.097174
     72 N7         -5.9340   -2.9420    0.8840 n         1 MOL     -0.242683
     73 C23        -5.6910   -3.8290    1.9990 c3        1 MOL     -0.044142
     74 C24        -4.3310   -4.5220    2.0240 c         1 MOL      0.477466
     75 O13        -4.1540   -5.5460    2.6600 o         1 MOL     -0.576037
     76 H32        -5.9440   -1.9510    1.0990 hn        1 MOL      0.232707
     77 H33        -6.5210   -4.5290    1.9600 h1        1 MOL      0.072274
     78 H34        -5.8250   -3.2900    2.9400 h1        1 MOL      0.072274
     79 N8         -3.2790   -4.0310    1.3720 n         1 MOL     -0.095189
     80 C25        -1.9600   -4.6870    1.3330 c3        1 MOL     -0.287416
     81 C26        -0.8300   -3.6180    1.2680 c         1 MOL      0.698504
     82 O14        -1.1460   -2.4730    0.8870 o         1 MOL     -0.711873
     83 C27        -1.8790   -5.5680    0.0570 c3        1 MOL      0.457191
     84 C28        -2.3660   -6.9890    0.3200 c3        1 MOL     -0.424534
     85 O15        -2.4200   -5.0660   -1.1720 oh        1 MOL     -0.607852
     86 H35        -3.3500   -3.1130    0.9600 hn        1 MOL      0.151562
     87 H36        -1.7710   -5.2760    2.2350 h1        1 MOL      0.117701
     88 H37        -0.8090   -5.6630   -0.1260 h1        1 MOL     -0.021539
     89 H38        -3.1920   -4.5500   -0.9280 ho        1 MOL      0.421677
     90 H39        -1.6770   -7.5780    0.9260 hc        1 MOL      0.109247
     91 H40        -3.3930   -7.0670    0.6830 hc        1 MOL      0.109247
     92 H41        -2.4160   -7.5320   -0.6180 hc        1 MOL      0.109247
     93 N9          0.3520   -3.9060    1.7210 n         1 MOL     -0.445479
     94 C29         1.4610   -2.9850    1.8120 c3        1 MOL      0.034400
     95 C30         2.5030   -3.3820    0.7860 c         1 MOL      0.360809
     96 O16         3.1030   -4.4530    0.8320 o         1 MOL     -0.532354
     97 C31         1.9530   -2.8960    3.3010 c3        1 MOL      0.148563
     98 C32         0.8540   -2.1090    4.0840 c3        1 MOL      0.200877
     99 C33         3.3290   -2.3420    3.6520 c3        1 MOL     -0.355905
    100 C34         1.2750   -1.7140    5.5680 c3        1 MOL     -0.463401
    101 H42         0.5130   -4.8120    2.1360 hn        1 MOL      0.283634
    102 H43         1.1700   -1.9640    1.5950 h1        1 MOL      0.137869
    103 H44         1.8360   -3.8740    3.7580 hc        1 MOL     -0.006476
    104 H45        -0.0230   -2.7480    4.0640 hc        1 MOL     -0.042209
    105 H46         0.6060   -1.2220    3.4930 hc        1 MOL     -0.042209
    106 H47         3.6570   -2.7330    4.6100 hc        1 MOL      0.080288
    107 H48         4.0180   -2.7330    2.8940 hc        1 MOL      0.080288
    108 H49         3.2530   -1.2630    3.5140 hc        1 MOL      0.080288
    109 H50         1.9230   -0.8460    5.4050 hc        1 MOL      0.124500
    110 H51         0.3770   -1.5510    6.1570 hc        1 MOL      0.124500
    111 H52         1.7980   -2.5530    6.0210 hc        1 MOL      0.124500
    112 N10         2.6690   -2.5840   -0.2520 n         1 MOL     -0.121884
    113 C35         3.7870   -2.7250   -1.1540 c3        1 MOL      0.004531
    114 C36         5.0020   -2.1190   -0.5030 c         1 MOL      0.447154
    115 O17         4.9380   -1.2620    0.3470 o         1 MOL     -0.325324
    116 C37         3.5830   -1.9810   -2.5090 c3        1 MOL      0.179666
    117 C38         2.5420   -2.7600   -3.2760 c3        1 MOL     -0.249770
    118 O18         3.0820   -0.6070   -2.3580 oh        1 MOL     -0.595975
    119 H53         2.1450   -1.7210   -0.2490 hn        1 MOL      0.125690
    120 H54         4.0550   -3.7650   -1.2870 h1        1 MOL      0.087094
    121 H55         4.4850   -1.9430   -3.1190 h1        1 MOL      0.035311
    122 H56         2.1760   -0.6380   -2.0490 ho        1 MOL      0.397952
    123 H57         2.3550   -2.1850   -4.1800 hc        1 MOL      0.068802
    124 H58         2.9440   -3.7440   -3.5160 hc        1 MOL      0.068802
    125 H59         1.6750   -2.8550   -2.6130 hc        1 MOL      0.068802
    126 N11         6.1470   -2.3890   -1.0840 n         1 MOL     -0.380184
    127 C39         7.5550   -1.9220   -0.6860 c3        1 MOL     -0.123421
    128 C40         7.6150   -0.4130   -0.4680 c         1 MOL      0.389864
    129 O19         8.0190   -0.0380    0.6160 o         1 MOL     -0.488515
    130 C41         8.5450   -2.2120   -1.7950 c3        1 MOL      0.529112
    131 C42        10.0120   -1.7870   -1.4760 c3        1 MOL     -0.458837
    132 O20         8.6210   -3.5790   -2.0940 oh        1 MOL     -0.625591
    133 H60         6.1150   -2.9250   -1.9330 hn        1 MOL      0.194490
    134 H61         7.8580   -2.4970    0.1860 h1        1 MOL      0.174035
    135 H62         8.3070   -1.6410   -2.6970 h1        1 MOL     -0.068124
    136 H63         8.6880   -3.7240   -3.0410 ho        1 MOL      0.394044
    137 H64        10.4130   -1.2850   -2.3540 hc        1 MOL      0.122799
    138 H65        10.0900   -1.0300   -0.6900 hc        1 MOL      0.122799
    139 H66        10.5660   -2.6950   -1.2450 hc        1 MOL      0.122799
    140 N12         6.9880    0.4140   -1.2990 n         1 MOL     -0.259988
    141 C43         6.8970    1.8450   -1.0640 c3        1 MOL      0.024331
    142 C44         6.1230    2.3370    0.1310 c         1 MOL      0.342180
    143 O21         6.5370    3.3490    0.6920 o         1 MOL     -0.487622
    144 C45         6.5030    2.6190   -2.3540 c3        1 MOL     -0.383092
    145 C46         5.0310    2.3900   -2.7810 c3        1 MOL      0.173091
    146 C47         4.7760    3.0100   -4.1090 c3        1 MOL     -0.111751
    147 C48         3.2470    2.8600   -4.4580 c3        1 MOL     -0.112286
    148 N13         2.9040    1.4100   -4.6450 n4        1 MOL     -0.246332
    149 H67         6.4970    0.1040   -2.1240 hn        1 MOL      0.188665
    150 H68         7.8990    2.2220   -0.8900 h1        1 MOL      0.114523
    151 H69         7.2240    2.3840   -3.1290 hc        1 MOL      0.129881
    152 H70         6.5640    3.6670   -2.0590 hc        1 MOL      0.129881
    153 H71         4.3990    2.8670   -2.0340 hc        1 MOL      0.001684
    154 H72         4.7240    1.3470   -2.8410 hc        1 MOL      0.001684
    155 H73         5.3110    2.6370   -4.9860 hc        1 MOL      0.066728
    156 H74         4.9540    4.0780   -4.1300 hc        1 MOL      0.066728
    157 H75         2.9510    3.4090   -5.3480 hx        1 MOL      0.128304
    158 H76         2.5810    3.2410   -3.7000 hx        1 MOL      0.128304
    159 H77         1.9250    1.1810   -4.7450 hn        1 MOL      0.277086
    160 H78         3.3430    0.9460   -5.4300 hn        1 MOL      0.277086
    161 H79         3.2550    0.8980   -3.8450 hn        1 MOL      0.277086
    162 N14         4.9150    1.7280    0.4060 n         1 MOL     -0.017914
    163 C49         4.0560    1.9430    1.5810 c3        1 MOL     -0.320650
    164 C50         4.7120    1.4400    2.9580 c         1 MOL      0.492137
    165 O22         4.5780    1.9820    4.0500 o         1 MOL     -0.528558
    166 C51         2.7600    1.2460    1.2320 c3        1 MOL      0.445640
    167 C52         1.9790    1.7670    0.0760 c3        1 MOL     -0.390104
    168 C53         0.8390    0.8330   -0.3210 c         1 MOL      0.735677
    169 O23         1.0120   -0.3470   -0.7840 o         1 MOL     -0.695968
    170 O24        -0.3160    1.3290   -0.3470 o         1 MOL     -0.695968
    171 H80         4.7630    0.8340   -0.0540 hn        1 MOL      0.109238
    172 H81         4.0110    3.0310    1.6630 h1        1 MOL      0.129272
    173 H82         2.1570    1.2220    2.1320 hc        1 MOL     -0.078879
    174 H83         2.9960    0.2090    1.0110 hc        1 MOL     -0.078879
    175 H84         2.7270    1.8080   -0.7070 hc        1 MOL      0.070752
    176 H85         1.7040    2.7560    0.4370 hc        1 MOL      0.070752
    177 N15         5.5050    0.3560    2.7980 n         1 MOL     -0.008552
    178 C54         6.3790   -0.0700    3.8830 c3        1 MOL     -0.398951
    179 H86         5.8390   -0.0120    4.8280 h1        1 MOL      0.135277
    180 H87         6.6990   -1.0970    3.7110 h1        1 MOL      0.135277
    181 H88         7.2520    0.5800    3.9250 h1        1 MOL      0.135277
    182 H89         5.6130   -0.0690    1.8930 hn        1 MOL      0.108414
    183 Ca1        -1.5910   -0.7540   -1.1750 Ca        1 MOL      1.754428
    184 O25        -0.3220    0.1530   -3.6280 oh        1 MOL     -0.852541
    185 H90        -1.1760    0.5220   -3.8080 ho        1 MOL      0.401953
    186 H91         0.0910    0.0720   -4.4900 ho        1 MOL      0.401953
    187 O26        -0.6030   -3.1970   -2.2610 oh        1 MOL     -0.852541
    188 H92        -1.0640   -3.9480   -1.8910 ho        1 MOL      0.401953
    189 H93        -0.6770   -3.3070   -3.2100 ho        1 MOL      0.401953
@<TRIPOS>BOND
     1    1    2 1   
     2    1    4 1   
     3    1    5 1   
     4    1    6 1   
     5    2    3 2   
     6    2    7 1   
     7    7    8 1   
     8    7   15 1   
     9    8    9 1   
    10    8   11 1   
    11    8   16 1   
    12    9   10 2   
    13    9   19 1   
    14   11   12 1   
    15   11   17 1   
    16   11   18 1   
    17   12   13 1   
    18   12   14 1   
    19   19   20 1   
    20   19   28 1   
    21   20   21 1   
    22   20   23 1   
    23   20   29 1   
    24   21   22 2   
    25   21   41 1   
    26   23   24 1   
    27   23   30 1   
    28   23   31 1   
    29   24   25 1   
    30   24   32 1   
    31   24   33 1   
    32   25   26 1   
    33   25   34 1   
    34   25   35 1   
    35   26   27 1   
    36   26   36 1   
    37   26   37 1   
    38   27   38 1   
    39   27   39 1   
    40   27   40 1   
    41   41   42 1   
    42   41   49 1   
    43   42   43 1   
    44   42   45 1   
    45   42   50 1   
    46   43   44 2   
    47   43   53 1   
    48   45   46 1   
    49   45   51 1   
    50   45   52 1   
    51   46   47 1   
    52   46   48 1   
    53   53   54 1   
    54   53   57 1   
    55   54   55 1   
    56   54   58 1   
    57   54   59 1   
    58   55   56 2   
    59   55   60 1   
    60   60   61 1   
    61   60   68 1   
    62   61   62 1   
    63   61   64 1   
    64   61   69 1   
    65   62   63 2   
    66   62   72 1   
    67   64   65 1   
    68   64   70 1   
    69   64   71 1   
    70   65   66 1   
    71   65   67 1   
    72   72   73 1   
    73   72   76 1   
    74   73   74 1   
    75   73   77 1   
    76   73   78 1   
    77   74   75 2   
    78   74   79 1   
    79   79   80 1   
    80   79   86 1   
    81   80   81 1   
    82   80   83 1   
    83   80   87 1   
    84   81   82 2   
    85   81   93 1   
    86   83   84 1   
    87   83   85 1   
    88   83   88 1   
    89   84   90 1   
    90   84   91 1   
    91   84   92 1   
    92   85   89 1   
    93   93   94 1   
    94   93  101 1   
    95   94   95 1   
    96   94   97 1   
    97   94  102 1   
    98   95   96 2   
    99   95  112 1   
   100   97   98 1   
   101   97   99 1   
   102   97  103 1   
   103   98  100 1   
   104   98  104 1   
   105   98  105 1   
   106   99  106 1   
   107   99  107 1   
   108   99  108 1   
   109  100  109 1   
   110  100  110 1   
   111  100  111 1   
   112  112  113 1   
   113  112  119 1   
   114  113  114 1   
   115  113  116 1   
   116  113  120 1   
   117  114  115 2   
   118  114  126 1   
   119  116  117 1   
   120  116  118 1   
   121  116  121 1   
   122  117  123 1   
   123  117  124 1   
   124  117  125 1   
   125  118  122 1   
   126  126  127 1   
   127  126  133 1   
   128  127  128 1   
   129  127  130 1   
   130  127  134 1   
   131  128  129 2   
   132  128  140 1   
   133  130  131 1   
   134  130  132 1   
   135  130  135 1   
   136  131  137 1   
   137  131  138 1   
   138  131  139 1   
   139  132  136 1   
   140  140  141 1   
   141  140  149 1   
   142  141  142 1   
   143  141  144 1   
   144  141  150 1   
   145  142  143 2   
   146  142  162 1   
   147  144  145 1   
   148  144  151 1   
   149  144  152 1   
   150  145  146 1   
   151  145  153 1   
   152  145  154 1   
   153  146  147 1   
   154  146  155 1   
   155  146  156 1   
   156  147  148 1   
   157  147  157 1   
   158  147  158 1   
   159  148  159 1   
   160  148  160 1   
   161  148  161 1   
   162  162  163 1   
   163  162  171 1   
   164  163  164 1   
   165  163  166 1   
   166  163  172 1   
   167  164  165 2   
   168  164  177 1   
   169  166  167 1   
   170  166  173 1   
   171  166  174 1   
   172  167  168 1   
   173  167  175 1   
   174  167  176 1   
   175  168  169 1   
   176  168  170 1   
   177  177  178 1   
   178  177  182 1   
   179  178  179 1   
   180  178  180 1   
   181  178  181 1   
   182  184  185 1   
   183  184  186 1   
   184  187  188 1   
   185  187  189 1   
@<TRIPOS>SUBSTRUCTURE
     1 MOL         1 TEMP              0 ****  ****    0 ROOT
