@<TRIPOS>MOLECULE
MOL
  179   176     1     0     0
SMALL
resp


@<TRIPOS>ATOM
      1 C1          2.1870    2.3730    5.7420 c3        1 MOL     -0.297763
      2 C2          1.5620    2.2490    4.3530 c         1 MOL      0.815895
      3 O1          2.2560    2.1240    3.3520 o         1 MOL     -0.606815
      4 H1          1.5930    1.8080    6.4590 hc        1 MOL      0.071354
      5 H2          3.2020    1.9750    5.7200 hc        1 MOL      0.071354
      6 H3          2.2130    3.4210    6.0370 hc        1 MOL      0.071354
      7 N1          0.2440    2.4060    4.2280 n         1 MOL     -0.679437
      8 C3         -0.4160    2.2760    2.8900 c3        1 MOL      0.067780
      9 C4         -0.3420    3.6180    2.1230 c         1 MOL      0.680137
     10 O2         -0.4840    4.6340    2.7570 o         1 MOL     -0.570625
     11 C5         -1.8570    1.7590    3.0740 c3        1 MOL      0.027596
     12 C6         -2.5730    1.4150    1.7590 c         1 MOL      0.658789
     13 O3         -3.6470    0.7160    1.7970 o         1 MOL     -0.713187
     14 O4         -2.0280    1.7340    0.6820 o         1 MOL     -0.713187
     15 H4         -0.3880    2.4940    5.0130 hn        1 MOL      0.335729
     16 H5          0.1720    1.5410    2.3320 h1        1 MOL      0.058292
     17 H6         -2.4720    2.4750    3.6160 hc        1 MOL     -0.002929
     18 H7         -1.7410    0.9090    3.7420 hc        1 MOL     -0.002929
     19 N2          0.0580    3.5890    0.7800 n         1 MOL     -0.248659
     20 C7          0.4290    4.7670   -0.0240 c3        1 MOL      0.072665
     21 C8         -0.8010    5.4950   -0.5790 c         1 MOL      0.521635
     22 O5         -0.7730    6.6480   -1.0830 o         1 MOL     -0.590226
     23 C9          1.5150    4.5030   -1.1120 c3        1 MOL     -0.059618
     24 C10         2.1850    5.7330   -1.7650 c3        1 MOL     -0.313972
     25 C11         2.6900    6.6740   -0.7090 c3        1 MOL      0.110734
     26 C12         3.5360    7.7240   -1.3880 c3        1 MOL      0.091927
     27 N3          3.8280    8.8170   -0.4190 n4        1 MOL     -0.457073
     28 H8          0.0670    2.6810    0.3300 hn        1 MOL      0.064158
     29 H9          0.8410    5.4430    0.7340 h1        1 MOL     -0.000599
     30 H10         1.1760    3.8640   -1.9330 hc        1 MOL      0.111770
     31 H11         2.2000    3.9460   -0.4700 hc        1 MOL      0.111770
     32 H12         1.4420    6.2140   -2.4020 hc        1 MOL      0.100220
     33 H13         3.0250    5.5080   -2.4190 hc        1 MOL      0.100220
     34 H14         3.3300    6.2530    0.0630 hc        1 MOL      0.021507
     35 H15         1.8460    7.2020   -0.2810 hc        1 MOL      0.021507
     36 H16         2.9540    8.1510   -2.2070 hx        1 MOL      0.061105
     37 H17         4.4500    7.2520   -1.7530 hx        1 MOL      0.061105
     38 H18         4.5040    8.5720    0.2850 hn        1 MOL      0.348048
     39 H19         4.0800    9.6280   -0.9610 hn        1 MOL      0.348048
     40 H20         2.9720    9.1390    0.0120 hn        1 MOL      0.348048
     41 N4         -1.9130    4.8400   -0.4610 n         1 MOL     -0.196539
     42 C13        -3.1490    5.1650   -1.1970 c3        1 MOL     -0.042184
     43 C14        -4.3960    4.7070   -0.5170 c         1 MOL      0.496109
     44 O6         -5.4870    4.9980   -1.0150 o         1 MOL     -0.525958
     45 C15        -3.0690    4.3840   -2.6350 c3        1 MOL     -0.053953
     46 C16        -2.5640    2.9770   -2.5460 c         1 MOL      0.606456
     47 O7         -3.3710    2.0880   -2.2480 o         1 MOL     -0.647146
     48 O8         -1.3250    2.7520   -2.5230 o         1 MOL     -0.647146
     49 H21        -1.8220    3.9590    0.0320 hn        1 MOL     -0.141222
     50 H22        -3.2350    6.2350   -1.3820 h1        1 MOL      0.120547
     51 H23        -2.4890    4.9290   -3.3770 hc        1 MOL      0.028728
     52 H24        -4.0580    4.4760   -3.0750 hc        1 MOL      0.028728
     53 N5         -4.3010    3.9370    0.6120 n         1 MOL     -0.286512
     54 C17        -5.5030    3.5480    1.4080 c3        1 MOL     -0.385186
     55 C18        -6.3310    2.4040    0.8810 c         1 MOL      0.644943
     56 O9         -7.4050    2.1950    1.3370 o         1 MOL     -0.583361
     57 H25        -3.3720    3.6900    0.9070 hn        1 MOL      0.317905
     58 H26        -6.1420    4.4290    1.4640 h1        1 MOL      0.169802
     59 H27        -5.2240    3.1830    2.3940 h1        1 MOL      0.169802
     60 N6         -5.8490    1.6780   -0.1480 n         1 MOL     -0.312695
     61 C19        -6.6830    0.6260   -0.8340 c3        1 MOL      0.151496
     62 C20        -6.8020   -0.6080    0.0390 c         1 MOL      0.230726
     63 O10        -7.6270   -1.5210   -0.1600 o         1 MOL     -0.497841
     64 C21        -6.0600    0.4500   -2.2490 c3        1 MOL     -0.158793
     65 C22        -5.0890   -0.6520   -2.4100 c         1 MOL      0.630773
     66 N7         -5.3800   -1.6410   -3.2440 n         1 MOL     -0.623106
     67 O11        -4.0520   -0.6730   -1.7720 o         1 MOL     -0.654729
     68 H28        -4.8660    1.8060   -0.3390 hn        1 MOL      0.207070
     69 H29        -7.6490    1.0890   -1.0220 h1        1 MOL      0.094753
     70 H30        -5.5710    1.3540   -2.6080 hc        1 MOL      0.043770
     71 H31        -6.9350    0.1330   -2.8210 hc        1 MOL      0.043770
     72 H32        -6.2850   -1.6480   -3.6990 hn        1 MOL      0.319166
     73 H33        -4.6000   -2.1820   -3.5810 hn        1 MOL      0.319166
     74 N8         -6.0240   -0.7730    1.1130 n         1 MOL      0.051765
     75 C23        -6.0810   -1.9160    2.0080 c3        1 MOL     -0.354385
     76 C24        -4.8770   -2.8950    2.0010 c         1 MOL      0.783980
     77 O12        -4.8810   -3.8590    2.7210 o         1 MOL     -0.612826
     78 H34        -5.2850   -0.1110    1.3090 hn        1 MOL      0.163990
     79 H35        -6.9360   -2.5660    1.7780 h1        1 MOL      0.128619
     80 H36        -6.2040   -1.5980    3.0360 h1        1 MOL      0.128619
     81 N9         -3.7800   -2.5800    1.3090 n         1 MOL     -0.513867
     82 C25        -2.6490   -3.4190    1.0430 c3        1 MOL      0.144979
     83 C26        -1.3830   -2.5510    0.9710 c         1 MOL      0.438010
     84 O13        -1.4360   -1.3390    0.6710 o         1 MOL     -0.519582
     85 C27        -2.9390   -4.0270   -0.3550 c3        1 MOL     -0.023008
     86 C28        -4.0620   -5.0340   -0.3890 ca        1 MOL      0.096857
     87 C29        -5.3390   -4.5690   -0.9130 ca        1 MOL     -0.253973
     88 C30        -3.9380   -6.4090   -0.0970 ca        1 MOL     -0.253973
     89 C31        -6.4200   -5.4080   -0.9890 ca        1 MOL     -0.152960
     90 C32        -5.0110   -7.2890   -0.2020 ca        1 MOL     -0.152960
     91 C33        -6.2420   -6.7970   -0.6290 ca        1 MOL      0.261625
     92 O14        -7.2200   -7.7350   -0.6040 oh        1 MOL     -0.484212
     93 H37        -3.7870   -1.6400    0.9450 hn        1 MOL      0.256031
     94 H38        -2.5140   -4.2310    1.7560 h1        1 MOL      0.073639
     95 H39        -2.0380   -4.4870   -0.7530 hc        1 MOL      0.007995
     96 H40        -3.2530   -3.2260   -1.0220 hc        1 MOL      0.007995
     97 H41        -5.4910   -3.5870   -1.3420 ha        1 MOL      0.136664
     98 H42        -2.9950   -6.8480    0.1920 ha        1 MOL      0.136664
     99 H43        -7.3690   -5.0730   -1.4040 ha        1 MOL      0.128581
    100 H44        -4.8880   -8.3490    0.0160 ha        1 MOL      0.128581
    101 H45        -6.9380   -8.6200   -0.3820 ho        1 MOL      0.356451
    102 N10        -0.2250   -3.0740    1.3220 n         1 MOL     -0.306620
    103 C34         1.1030   -2.5040    1.1150 c3        1 MOL     -0.113236
    104 C35         1.9160   -3.5940    0.3590 c         1 MOL      0.500189
    105 O15         1.8980   -4.7480    0.7420 o         1 MOL     -0.561003
    106 C36         1.6320   -1.9780    2.4730 c3        1 MOL      0.167838
    107 C37         2.4670   -2.9040    3.3620 c3        1 MOL     -0.325614
    108 C38         0.5910   -1.2120    3.2850 c3        1 MOL     -0.044356
    109 C39         3.3170   -2.2010    4.4240 c3        1 MOL     -0.282305
    110 H46        -0.2420   -3.8400    1.9660 hn        1 MOL      0.238566
    111 H47         0.9440   -1.7010    0.3890 h1        1 MOL      0.133237
    112 H48         2.2820   -1.1470    2.1890 hc        1 MOL      0.036714
    113 H49         3.1860   -3.3630    2.6940 hc        1 MOL      0.126199
    114 H50         1.8300   -3.5730    3.9600 hc        1 MOL      0.126199
    115 H51         0.0090   -0.5290    2.6740 hc        1 MOL      0.013949
    116 H52        -0.0660   -2.0100    3.6330 hc        1 MOL      0.013949
    117 H53         1.1610   -0.6060    4.0000 hc        1 MOL      0.013949
    118 H54         3.9540   -1.4500    3.9620 hc        1 MOL      0.084620
    119 H55         2.7390   -1.8900    5.3000 hc        1 MOL      0.084620
    120 H56         3.8990   -3.0440    4.7870 hc        1 MOL      0.084620
    121 N11         2.6370   -3.2150   -0.6750 n         1 MOL     -0.258461
    122 C40         3.8130   -3.9760   -1.1970 c3        1 MOL     -0.024890
    123 C41         5.0070   -3.7120   -0.3280 c         1 MOL      0.482765
    124 O16         5.0170   -2.8070    0.5290 o         1 MOL     -0.312910
    125 C42         3.9280   -3.6070   -2.6480 c3        1 MOL     -0.194803
    126 O17         4.3540   -2.2140   -2.7200 oh        1 MOL     -0.325021
    127 H57         2.5460   -2.2410   -0.9160 hn        1 MOL      0.109776
    128 H58         3.5040   -5.0260   -1.1550 h1        1 MOL      0.118771
    129 H59         3.0270   -3.7640   -3.2440 h1        1 MOL      0.118198
    130 H60         4.6420   -4.2800   -3.1230 h1        1 MOL      0.118198
    131 H61         4.0970   -1.9560   -3.6060 ho        1 MOL      0.348393
    132 N12         6.0410   -4.5430   -0.5360 n         1 MOL     -0.525413
    133 C43         7.3920   -4.1500   -0.0350 c3        1 MOL      0.241388
    134 C44         7.8420   -2.7620   -0.5690 c         1 MOL      0.424511
    135 O18         8.7180   -2.1410    0.0830 o         1 MOL     -0.497585
    136 C45         8.3570   -5.3200   -0.3940 c3        1 MOL     -0.360412
    137 H62         6.0130   -5.4470   -0.9850 hn        1 MOL      0.312696
    138 H63         7.2850   -4.0800    1.0390 h1        1 MOL      0.051066
    139 H64         9.1610   -5.3040    0.3370 hc        1 MOL      0.106926
    140 H65         7.8220   -6.2490   -0.5720 hc        1 MOL      0.106926
    141 H66         8.7820   -5.0170   -1.3550 hc        1 MOL      0.106926
    142 N13         7.3500   -2.2290   -1.7120 n         1 MOL     -0.312757
    143 C46         7.7680   -0.9410   -2.2840 c3        1 MOL      0.054496
    144 C47         7.0170    0.2990   -1.5800 c         1 MOL      0.315528
    145 O19         7.5600    1.3660   -1.3330 o         1 MOL     -0.509681
    146 C48         7.4560   -1.0100   -3.8380 c3        1 MOL     -0.247240
    147 H67         6.8020   -2.8380   -2.2980 hn        1 MOL      0.229915
    148 H68         8.8400   -0.8940   -2.1050 h1        1 MOL      0.108919
    149 H69         7.6670   -0.0920   -4.3860 hc        1 MOL      0.070319
    150 H70         7.9680   -1.8070   -4.3680 hc        1 MOL      0.070319
    151 H71         6.4490   -1.3880   -3.9970 hc        1 MOL      0.070319
    152 N14         5.8560    0.0440   -1.0450 n         1 MOL      0.123573
    153 C49         5.1790    0.9480   -0.1520 c3        1 MOL     -0.046675
    154 C50         5.8240    0.9900    1.2160 c         1 MOL      0.350435
    155 O20         5.9640    2.0000    1.9360 o         1 MOL     -0.531179
    156 C51         3.7360    0.5580   -0.2080 c3        1 MOL      0.115402
    157 C52         3.0850    0.8700   -1.5640 c3        1 MOL      0.011393
    158 C53         1.5700    0.5110   -1.3500 c         1 MOL      0.657090
    159 O21         0.8630    1.1170   -0.5070 o         1 MOL     -0.707364
    160 O22         0.9770   -0.1950   -2.1780 o         1 MOL     -0.707364
    161 H72         5.5390   -0.8930   -1.2680 hn        1 MOL     -0.105101
    162 H73         5.3700    1.9200   -0.5990 h1        1 MOL      0.070965
    163 H74         3.2460    1.1380    0.5780 hc        1 MOL      0.003440
    164 H75         3.7100   -0.5120   -0.0090 hc        1 MOL      0.003440
    165 H76         3.6700    0.3540   -2.3200 hc        1 MOL     -0.048972
    166 H77         3.2240    1.9240   -1.8120 hc        1 MOL     -0.048972
    167 N15         6.3450   -0.1610    1.6970 n         1 MOL      0.021235
    168 C54         7.0910   -0.3360    2.9390 c3        1 MOL     -0.244083
    169 H78         6.4830   -0.8910    3.6530 h1        1 MOL      0.099505
    170 H79         8.0090   -0.8880    2.7370 h1        1 MOL      0.099505
    171 H80         7.3380    0.6410    3.3550 h1        1 MOL      0.099505
    172 H81         6.0940   -0.9110    1.0740 hn        1 MOL      0.014231
    173 Ca1        -1.5000    0.3370   -1.5450 Ca        1 MOL      1.795697
    174 O23        -1.4430   -2.1730   -2.4350 oh        1 MOL     -0.872879
    175 H82        -2.0350   -2.8300   -2.8010 ho        1 MOL      0.414748
    176 H83        -0.6020   -2.3370   -2.8480 ho        1 MOL      0.414748
    177 O24        -0.9440    0.5520   -4.4130 oh        1 MOL     -0.872879
    178 H84        -0.1400    0.2880   -4.8550 ho        1 MOL      0.414748
    179 H85        -1.4950    0.9180   -5.1070 ho        1 MOL      0.414748
@<TRIPOS>BOND
     1    1    2 1   
     2    1    4 1   
     3    1    5 1   
     4    1    6 1   
     5    2    3 2   
     6    2    7 1   
     7    7    8 1   
     8    7   15 1   
     9    8    9 1   
    10    8   11 1   
    11    8   16 1   
    12    9   10 2   
    13    9   19 1   
    14   11   12 1   
    15   11   17 1   
    16   11   18 1   
    17   12   13 1   
    18   12   14 1   
    19   19   20 1   
    20   19   28 1   
    21   20   21 1   
    22   20   23 1   
    23   20   29 1   
    24   21   22 2   
    25   21   41 1   
    26   23   24 1   
    27   23   30 1   
    28   23   31 1   
    29   24   25 1   
    30   24   32 1   
    31   24   33 1   
    32   25   26 1   
    33   25   34 1   
    34   25   35 1   
    35   26   27 1   
    36   26   36 1   
    37   26   37 1   
    38   27   38 1   
    39   27   39 1   
    40   27   40 1   
    41   41   42 1   
    42   41   49 1   
    43   42   43 1   
    44   42   45 1   
    45   42   50 1   
    46   43   44 2   
    47   43   53 1   
    48   45   46 1   
    49   45   51 1   
    50   45   52 1   
    51   46   47 1   
    52   46   48 1   
    53   53   54 1   
    54   53   57 1   
    55   54   55 1   
    56   54   58 1   
    57   54   59 1   
    58   55   56 2   
    59   55   60 1   
    60   60   61 1   
    61   60   68 1   
    62   61   62 1   
    63   61   64 1   
    64   61   69 1   
    65   62   63 2   
    66   62   74 1   
    67   64   65 1   
    68   64   70 1   
    69   64   71 1   
    70   65   66 1   
    71   65   67 2   
    72   66   72 1   
    73   66   73 1   
    74   74   75 1   
    75   74   78 1   
    76   75   76 1   
    77   75   79 1   
    78   75   80 1   
    79   76   77 2   
    80   76   81 1   
    81   81   82 1   
    82   81   93 1   
    83   82   83 1   
    84   82   85 1   
    85   82   94 1   
    86   83   84 2   
    87   83  102 1   
    88   85   86 1   
    89   85   95 1   
    90   85   96 1   
    91   86   87 ar  
    92   86   88 ar  
    93   87   89 ar  
    94   87   97 1   
    95   88   90 ar  
    96   88   98 1   
    97   89   91 ar  
    98   89   99 1   
    99   90   91 ar  
   100   90  100 1   
   101   91   92 1   
   102   92  101 1   
   103  102  103 1   
   104  102  110 1   
   105  103  104 1   
   106  103  106 1   
   107  103  111 1   
   108  104  105 2   
   109  104  121 1   
   110  106  107 1   
   111  106  108 1   
   112  106  112 1   
   113  107  109 1   
   114  107  113 1   
   115  107  114 1   
   116  108  115 1   
   117  108  116 1   
   118  108  117 1   
   119  109  118 1   
   120  109  119 1   
   121  109  120 1   
   122  121  122 1   
   123  121  127 1   
   124  122  123 1   
   125  122  125 1   
   126  122  128 1   
   127  123  124 2   
   128  123  132 1   
   129  125  126 1   
   130  125  129 1   
   131  125  130 1   
   132  126  131 1   
   133  132  133 1   
   134  132  137 1   
   135  133  134 1   
   136  133  136 1   
   137  133  138 1   
   138  134  135 2   
   139  134  142 1   
   140  136  139 1   
   141  136  140 1   
   142  136  141 1   
   143  142  143 1   
   144  142  147 1   
   145  143  144 1   
   146  143  146 1   
   147  143  148 1   
   148  144  145 2   
   149  144  152 1   
   150  146  149 1   
   151  146  150 1   
   152  146  151 1   
   153  152  153 1   
   154  152  161 1   
   155  153  154 1   
   156  153  156 1   
   157  153  162 1   
   158  154  155 2   
   159  154  167 1   
   160  156  157 1   
   161  156  163 1   
   162  156  164 1   
   163  157  158 1   
   164  157  165 1   
   165  157  166 1   
   166  158  159 1   
   167  158  160 1   
   168  167  168 1   
   169  167  172 1   
   170  168  169 1   
   171  168  170 1   
   172  168  171 1   
   173  174  175 1   
   174  174  176 1   
   175  177  178 1   
   176  177  179 1   
@<TRIPOS>SUBSTRUCTURE
     1 MOL         1 TEMP              0 ****  ****    0 ROOT
