@<TRIPOS>MOLECULE
MOL
  175   173     1     0     0
SMALL
resp


@<TRIPOS>ATOM
      1 C1          0.5310    3.9370    5.5740 c3        1 MOL     -0.427390
      2 C2         -0.0920    3.8840    4.1450 c         1 MOL      0.665632
      3 O1          0.6730    3.9030    3.1730 o         1 MOL     -0.530001
      4 H1         -0.2620    4.0670    6.3110 hc        1 MOL      0.108763
      5 H2          1.0640    3.0070    5.7740 hc        1 MOL      0.108763
      6 H3          1.2250    4.7750    5.6370 hc        1 MOL      0.108763
      7 N1         -1.4290    3.7070    3.9540 n         1 MOL     -0.606495
      8 C3         -2.0820    3.6280    2.6840 c3        1 MOL      0.106922
      9 C4         -2.0950    4.8670    1.7630 c         1 MOL      0.653929
     10 O2         -2.0400    6.0050    2.2460 o         1 MOL     -0.596389
     11 C5         -3.4980    3.0530    2.9530 c3        1 MOL     -0.323344
     12 C6         -4.2570    2.6570    1.6870 c         1 MOL      0.707810
     13 O3         -3.6310    2.1720    0.7110 o         1 MOL     -0.648775
     14 O4         -5.4700    2.5540    1.7460 o         1 MOL     -0.648775
     15 H4         -2.0510    3.7770    4.7430 hn        1 MOL      0.318331
     16 H5         -1.4610    2.8720    2.1930 h1        1 MOL      0.106417
     17 H6         -4.0430    3.8160    3.5010 hc        1 MOL      0.074271
     18 H7         -3.3600    2.1520    3.5490 hc        1 MOL      0.074271
     19 N2         -2.3120    4.6290    0.4820 n         1 MOL     -0.436154
     20 C7         -2.6360    5.5980   -0.6060 c3        1 MOL      0.109061
     21 C8         -3.5100    5.0520   -1.7200 c         1 MOL      0.577817
     22 O5         -3.8370    5.8440   -2.6300 o         1 MOL     -0.591255
     23 C9         -1.2480    6.1130   -1.1720 c3        1 MOL     -0.242517
     24 H8         -2.0710    3.7010    0.1740 hn        1 MOL      0.153117
     25 H9         -3.2040    6.4570   -0.2440 h1        1 MOL      0.057020
     26 H10        -0.7660    5.3300   -1.7680 hc        1 MOL      0.071470
     27 H11        -1.3730    6.9640   -1.8310 hc        1 MOL      0.071470
     28 H12        -0.5990    6.3460   -0.3360 hc        1 MOL      0.071470
     29 N3         -3.9820    3.8090   -1.7510 n         1 MOL     -0.603368
     30 C10        -4.7800    3.3260   -2.8850 c3        1 MOL      0.199027
     31 C11        -5.8980    2.3090   -2.5320 c         1 MOL      0.279525
     32 O6         -6.6960    1.8900   -3.4110 o         1 MOL     -0.541301
     33 C12        -3.7280    2.6760   -3.8230 c3        1 MOL     -0.264767
     34 C13        -2.8950    1.5120   -3.2340 c         1 MOL      0.701501
     35 O7         -3.2980    0.9810   -2.2070 o         1 MOL     -0.673214
     36 O8         -1.7850    1.2630   -3.7440 o         1 MOL     -0.673214
     37 H13        -3.4650    3.0890   -1.2610 hn        1 MOL      0.488076
     38 H14        -5.2680    4.1700   -3.3800 h1        1 MOL      0.079531
     39 H15        -3.1230    3.5050   -4.1970 hc        1 MOL      0.052218
     40 H16        -4.2440    2.3310   -4.7100 hc        1 MOL      0.052218
     41 N4         -5.9950    1.9250   -1.2360 n         1 MOL     -0.001220
     42 C14        -7.1940    1.2550   -0.7440 c3        1 MOL     -0.206143
     43 C15        -7.2880   -0.2540   -1.1920 c         1 MOL      0.417620
     44 O9         -8.3270   -0.9200   -0.8900 o         1 MOL     -0.604549
     45 H17        -5.3670    2.3260   -0.5560 hn        1 MOL      0.047820
     46 H18        -8.1200    1.6930   -1.1130 h1        1 MOL      0.107926
     47 H19        -7.2470    1.2800    0.3450 h1        1 MOL      0.107926
     48 N5         -6.2280   -0.9110   -1.7190 n         1 MOL     -0.181474
     49 C16        -6.1590   -2.2440   -2.3480 c3        1 MOL      0.011446
     50 C17        -6.3250   -3.2930   -1.2550 c         1 MOL      0.411914
     51 O10        -6.4960   -4.4220   -1.6960 o         1 MOL     -0.531593
     52 C18        -4.9690   -2.2960   -3.2430 c3        1 MOL     -0.236175
     53 C19        -3.6140   -2.3070   -2.4680 c         1 MOL      0.469181
     54 N6         -2.5450   -2.6210   -3.1370 n         1 MOL     -0.554922
     55 O11        -3.5650   -1.8480   -1.3310 o         1 MOL     -0.236106
     56 H20        -5.3810   -0.3620   -1.8080 hn        1 MOL      0.223397
     57 H21        -7.0020   -2.1720   -3.0550 h1        1 MOL      0.095211
     58 H22        -5.0180   -1.4210   -3.8880 hc        1 MOL      0.079082
     59 H23        -5.0080   -3.2260   -3.8140 hc        1 MOL      0.079082
     60 H24        -2.6660   -3.0500   -4.0490 hn        1 MOL      0.299436
     61 H25        -1.5810   -2.4520   -2.8760 hn        1 MOL      0.299436
     62 N7         -6.1930   -2.9610    0.0500 n         1 MOL     -0.179427
     63 C20        -6.3720   -3.8910    1.1680 c3        1 MOL     -0.156234
     64 C21        -5.1400   -4.3260    1.8510 c         1 MOL      0.592453
     65 O12        -5.1480   -4.8850    2.9250 o         1 MOL     -0.602185
     66 H26        -5.9640   -1.9980    0.2350 hn        1 MOL      0.211439
     67 H27        -6.8700   -4.7950    0.8040 h1        1 MOL      0.089856
     68 H28        -6.9910   -3.4900    1.9590 h1        1 MOL      0.089856
     69 N8         -3.9790   -4.0160    1.2380 n         1 MOL     -0.161949
     70 C22        -2.6400   -4.5040    1.6010 c3        1 MOL     -0.187346
     71 C23        -1.5530   -3.4640    1.7050 c         1 MOL      0.634722
     72 O13        -1.8310   -2.3300    1.2650 o         1 MOL     -0.578126
     73 C24        -2.2040   -5.4690    0.5510 c3        1 MOL      0.631022
     74 C25        -2.9440   -6.7480    0.6020 c3        1 MOL     -0.342331
     75 O14        -2.3190   -4.9790   -0.8110 oh        1 MOL     -0.610835
     76 H29        -3.9810   -3.2740    0.5480 hn        1 MOL      0.013887
     77 H30        -2.6070   -5.0630    2.5320 h1        1 MOL      0.079037
     78 H31        -1.2050   -5.8900    0.6930 h1        1 MOL     -0.065497
     79 H32        -1.9560   -4.0910   -0.7550 ho        1 MOL      0.293671
     80 H33        -2.8070   -7.1930    1.5830 hc        1 MOL      0.069824
     81 H34        -4.0020   -6.6210    0.3670 hc        1 MOL      0.069824
     82 H35        -2.4220   -7.3510   -0.1320 hc        1 MOL      0.069824
     83 N9         -0.3640   -3.7840    2.2350 n         1 MOL     -0.703206
     84 C26         0.8300   -2.9380    2.1320 c3        1 MOL      0.167535
     85 C27         1.5910   -3.1870    0.8550 c         1 MOL      0.541566
     86 O15         1.9320   -4.3360    0.5270 o         1 MOL     -0.589674
     87 C28         1.6460   -2.9890    3.4600 c3        1 MOL      0.060743
     88 C29         0.8710   -2.8730    4.7730 c3        1 MOL      0.328965
     89 C30         2.6680   -1.8830    3.3760 c3        1 MOL     -0.376170
     90 C31         1.7690   -2.7690    6.0430 c3        1 MOL     -0.190723
     91 H36        -0.2850   -4.7150    2.6160 hn        1 MOL      0.325026
     92 H37         0.5120   -1.8940    2.1630 h1        1 MOL      0.114854
     93 H38         2.1340   -3.9610    3.5500 hc        1 MOL     -0.007891
     94 H39         0.2980   -3.7760    4.9850 hc        1 MOL     -0.089423
     95 H40         0.1930   -2.0240    4.7360 hc        1 MOL     -0.089423
     96 H41         3.4960   -1.9850    4.0850 hc        1 MOL      0.073636
     97 H42         3.0130   -1.6760    2.3660 hc        1 MOL      0.073636
     98 H43         2.2230   -0.9330    3.6890 hc        1 MOL      0.073636
     99 H44         2.2180   -1.7740    6.0570 hc        1 MOL      0.036604
    100 H45         1.1810   -2.8110    6.9590 hc        1 MOL      0.036604
    101 H46         2.5160   -3.5540    6.0930 hc        1 MOL      0.036604
    102 N10         1.8910   -2.0920    0.1110 n         1 MOL     -0.086295
    103 C32         2.6250   -1.9070   -1.1570 c3        1 MOL      0.017177
    104 C33         4.1000   -1.4890   -0.7930 c         1 MOL      0.292028
    105 O16         4.2830   -0.8280    0.2350 o         1 MOL     -0.141669
    106 C34         1.8410   -0.9620   -2.0570 c3        1 MOL     -0.372385
    107 C35         0.4080   -1.3370   -2.3780 c         1 MOL      0.840733
    108 O17        -0.5210   -0.8210   -1.7000 o         1 MOL     -0.686573
    109 O18         0.1930   -2.1330   -3.3490 o         1 MOL     -0.686573
    110 H47         1.7670   -1.2370    0.6340 hn        1 MOL     -0.141634
    111 H48         2.6950   -2.8430   -1.6920 h1        1 MOL      0.063349
    112 H49         2.3840   -0.9410   -3.0050 hc        1 MOL      0.104667
    113 H50         1.9060    0.0410   -1.6600 hc        1 MOL      0.104667
    114 N11         5.0930   -1.8490   -1.5910 n         1 MOL     -0.416139
    115 C36         6.4840   -1.4710   -1.4650 c3        1 MOL      0.117232
    116 C37         6.8230   -0.0510   -0.9770 c         1 MOL      0.411810
    117 O19         7.2720    0.0710    0.1580 o         1 MOL     -0.531687
    118 C38         7.2980   -1.8720   -2.6710 c3        1 MOL     -0.095637
    119 C39         8.8250   -1.8320   -2.4470 ca        1 MOL      0.171098
    120 C40         9.5080   -3.0230   -2.0110 ca        1 MOL     -0.254612
    121 C41         9.5470   -0.6840   -2.7300 ca        1 MOL     -0.254612
    122 C42        10.9050   -2.9620   -1.7550 ca        1 MOL     -0.035890
    123 C43        10.9650   -0.6550   -2.5450 ca        1 MOL     -0.035890
    124 C44        11.6740   -1.7810   -2.0590 ca        1 MOL     -0.193159
    125 H51         4.8250   -2.3240   -2.4490 hn        1 MOL      0.307809
    126 H52         6.8850   -2.1440   -0.7110 h1        1 MOL      0.061768
    127 H53         7.0610   -1.1750   -3.4870 hc        1 MOL      0.030885
    128 H54         7.0930   -2.8800   -3.0120 hc        1 MOL      0.030885
    129 H55         8.9980   -3.9410   -1.7550 ha        1 MOL      0.144610
    130 H56         9.0390    0.2300   -2.9780 ha        1 MOL      0.144610
    131 H57        11.3410   -3.8930   -1.4310 ha        1 MOL      0.095678
    132 H58        11.5140    0.2040   -2.8890 ha        1 MOL      0.095678
    133 H59        12.7350   -1.8200   -1.8840 ha        1 MOL      0.126518
    134 N12         6.3570    1.0540   -1.6710 n         1 MOL      0.044130
    135 C45         6.6120    2.3970   -1.1920 c3        1 MOL     -0.234862
    136 C46         5.7230    2.8540   -0.0440 c         1 MOL      0.441770
    137 O20         5.8830    4.0580    0.2950 o         1 MOL     -0.523132
    138 C47         6.2530    3.2830   -2.4270 c3        1 MOL     -0.064334
    139 C48         5.1270    2.5610   -3.0870 c3        1 MOL      0.124231
    140 C49         5.5310    1.1290   -2.9100 c3        1 MOL     -0.161856
    141 H60         7.6810    2.5470   -0.9930 h1        1 MOL      0.126023
    142 H61         6.0120    4.3050   -2.1250 hc        1 MOL      0.044275
    143 H62         7.0740    3.2550   -3.1300 hc        1 MOL      0.044275
    144 H63         4.2120    2.7960   -2.5410 hc        1 MOL      0.007386
    145 H64         5.0890    2.8830   -4.1320 hc        1 MOL      0.007386
    146 H65         4.6490    0.4800   -2.8650 h1        1 MOL      0.040450
    147 H66         6.2300    0.8950   -3.7200 h1        1 MOL      0.040450
    148 N13         4.7090    2.0820    0.4250 n         1 MOL     -0.130884
    149 C50         4.0270    2.2990    1.7010 c3        1 MOL     -0.069972
    150 C51         4.8090    1.5810    2.9040 c         1 MOL      0.367474
    151 O21         5.0200    2.1660    3.9450 o         1 MOL     -0.532838
    152 C52         2.6470    1.6660    1.5680 c3        1 MOL      0.112398
    153 C53         1.6780    2.2180    0.4890 c3        1 MOL     -0.149336
    154 C54         0.4190    1.4510    0.4420 c         1 MOL      0.568039
    155 O22        -0.5400    1.9450   -0.1730 o         1 MOL     -0.573638
    156 O23         0.3380    0.3550    1.0570 o         1 MOL     -0.573638
    157 H67         4.6170    1.1510    0.0520 hn        1 MOL      0.155530
    158 H68         3.8290    3.3330    2.0050 h1        1 MOL      0.097115
    159 H69         2.0980    1.7280    2.5040 hc        1 MOL      0.021122
    160 H70         2.7540    0.5950    1.4050 hc        1 MOL      0.021122
    161 H71         2.1550    2.2290   -0.4900 hc        1 MOL      0.048502
    162 H72         1.5360    3.2700    0.7600 hc        1 MOL      0.048502
    163 N14         5.4740    0.4370    2.6140 n         1 MOL      0.041901
    164 C55         6.3740   -0.3930    3.3580 c3        1 MOL     -0.198841
    165 H73         5.8070   -1.0140    4.0510 h1        1 MOL      0.073751
    166 H74         6.9320   -1.0310    2.6720 h1        1 MOL      0.073751
    167 H75         7.0690    0.2340    3.9170 h1        1 MOL      0.073751
    168 H76         5.2380    0.1110    1.6920 hn        1 MOL     -0.042817
    169 Ca1        -2.1540   -0.0060   -0.0750 Ca        1 MOL      1.284055
    170 O24        -1.6840    0.3150    2.6840 oh        1 MOL     -0.732208
    171 H77        -1.8730    0.2780    3.6190 ho        1 MOL      0.378154
    172 H78        -0.7880   -0.0200    2.6070 ho        1 MOL      0.378154
    173 O25        -4.5970   -0.2800    0.8320 oh        1 MOL     -0.732208
    174 H79        -4.6140    0.6800    0.7260 ho        1 MOL      0.378154
    175 H80        -5.0260   -0.4240    1.6740 ho        1 MOL      0.378154
@<TRIPOS>BOND
     1    1    2 1   
     2    1    4 1   
     3    1    5 1   
     4    1    6 1   
     5    2    3 2   
     6    2    7 1   
     7    7    8 1   
     8    7   15 1   
     9    8    9 1   
    10    8   11 1   
    11    8   16 1   
    12    9   10 2   
    13    9   19 1   
    14   11   12 1   
    15   11   17 1   
    16   11   18 1   
    17   12   13 1   
    18   12   14 1   
    19   19   20 1   
    20   19   24 1   
    21   20   21 1   
    22   20   23 1   
    23   20   25 1   
    24   21   22 2   
    25   21   29 1   
    26   23   26 1   
    27   23   27 1   
    28   23   28 1   
    29   29   30 1   
    30   29   37 1   
    31   30   31 1   
    32   30   33 1   
    33   30   38 1   
    34   31   32 2   
    35   31   41 1   
    36   33   34 1   
    37   33   39 1   
    38   33   40 1   
    39   34   35 1   
    40   34   36 1   
    41   41   42 1   
    42   41   45 1   
    43   42   43 1   
    44   42   46 1   
    45   42   47 1   
    46   43   44 2   
    47   43   48 1   
    48   48   49 1   
    49   48   56 1   
    50   49   50 1   
    51   49   52 1   
    52   49   57 1   
    53   50   51 2   
    54   50   62 1   
    55   52   53 1   
    56   52   58 1   
    57   52   59 1   
    58   53   54 1   
    59   53   55 2   
    60   54   60 1   
    61   54   61 1   
    62   62   63 1   
    63   62   66 1   
    64   63   64 1   
    65   63   67 1   
    66   63   68 1   
    67   64   65 2   
    68   64   69 1   
    69   69   70 1   
    70   69   76 1   
    71   70   71 1   
    72   70   73 1   
    73   70   77 1   
    74   71   72 2   
    75   71   83 1   
    76   73   74 1   
    77   73   75 1   
    78   73   78 1   
    79   74   80 1   
    80   74   81 1   
    81   74   82 1   
    82   75   79 1   
    83   83   84 1   
    84   83   91 1   
    85   84   85 1   
    86   84   87 1   
    87   84   92 1   
    88   85   86 2   
    89   85  102 1   
    90   87   88 1   
    91   87   89 1   
    92   87   93 1   
    93   88   90 1   
    94   88   94 1   
    95   88   95 1   
    96   89   96 1   
    97   89   97 1   
    98   89   98 1   
    99   90   99 1   
   100   90  100 1   
   101   90  101 1   
   102  102  103 1   
   103  102  110 1   
   104  103  104 1   
   105  103  106 1   
   106  103  111 1   
   107  104  105 2   
   108  104  114 1   
   109  106  107 1   
   110  106  112 1   
   111  106  113 1   
   112  107  108 1   
   113  107  109 1   
   114  114  115 1   
   115  114  125 1   
   116  115  116 1   
   117  115  118 1   
   118  115  126 1   
   119  116  117 2   
   120  116  134 1   
   121  118  119 1   
   122  118  127 1   
   123  118  128 1   
   124  119  120 ar  
   125  119  121 ar  
   126  120  122 ar  
   127  120  129 1   
   128  121  123 ar  
   129  121  130 1   
   130  122  124 ar  
   131  122  131 1   
   132  123  124 ar  
   133  123  132 1   
   134  124  133 1   
   135  134  135 1   
   136  134  140 1   
   137  135  136 1   
   138  135  138 1   
   139  135  141 1   
   140  136  137 2   
   141  136  148 1   
   142  138  139 1   
   143  138  142 1   
   144  138  143 1   
   145  139  140 1   
   146  139  144 1   
   147  139  145 1   
   148  140  146 1   
   149  140  147 1   
   150  148  149 1   
   151  148  157 1   
   152  149  150 1   
   153  149  152 1   
   154  149  158 1   
   155  150  151 2   
   156  150  163 1   
   157  152  153 1   
   158  152  159 1   
   159  152  160 1   
   160  153  154 1   
   161  153  161 1   
   162  153  162 1   
   163  154  155 1   
   164  154  156 1   
   165  163  164 1   
   166  163  168 1   
   167  164  165 1   
   168  164  166 1   
   169  164  167 1   
   170  170  171 1   
   171  170  172 1   
   172  173  174 1   
   173  173  175 1   
@<TRIPOS>SUBSTRUCTURE
     1 MOL         1 TEMP              0 ****  ****    0 ROOT
