@<TRIPOS>MOLECULE
MOL
  179   176     1     0     0
SMALL
resp


@<TRIPOS>ATOM
      1 C1          0.3150    5.2090    4.7050 c3        1 MOL     -0.475400
      2 C2         -0.0900    4.4710    3.4150 c         1 MOL      0.601201
      3 O1          0.6310    4.4780    2.4640 o         1 MOL     -0.482670
      4 H1          0.7330    4.4960    5.4150 hc        1 MOL      0.125495
      5 H2          1.0610    5.9690    4.4700 hc        1 MOL      0.125495
      6 H3         -0.5620    5.6840    5.1430 hc        1 MOL      0.125495
      7 N1         -1.3000    3.8220    3.3940 n         1 MOL     -0.526822
      8 C3         -1.6980    3.0750    2.1450 c3        1 MOL      0.155208
      9 C4         -2.4350    4.0250    1.2110 c         1 MOL      0.252460
     10 O2         -3.5990    4.1580    1.2700 o         1 MOL     -0.418382
     11 C5         -2.5980    1.8530    2.5640 c3        1 MOL     -0.080386
     12 C6         -3.0020    0.9680    1.3730 c         1 MOL      0.862355
     13 O3         -3.9720    0.2030    1.4850 o         1 MOL     -0.784427
     14 O4         -2.3250    1.0100    0.2930 o         1 MOL     -0.784427
     15 H4         -1.8150    3.7200    4.2580 hn        1 MOL      0.319047
     16 H5         -0.8390    2.7440    1.5580 h1        1 MOL      0.043018
     17 H6         -3.4840    2.1630    3.1040 hc        1 MOL      0.012902
     18 H7         -2.0040    1.2640    3.2540 hc        1 MOL      0.012902
     19 N2         -1.6120    4.7740    0.4070 n         1 MOL     -0.114009
     20 C7         -2.0090    5.9070   -0.4410 c3        1 MOL      0.036435
     21 C8         -2.8760    5.5540   -1.7070 c         1 MOL      0.476300
     22 O5         -2.8750    6.3240   -2.6800 o         1 MOL     -0.535779
     23 C9         -0.8070    6.7460   -0.8770 c3        1 MOL     -0.291945
     24 C10         0.3650    7.0200    0.1210 c3        1 MOL      0.089140
     25 C11        -0.0020    7.6830    1.3920 c3        1 MOL     -0.201562
     26 C12        -0.3870    9.1340    1.4430 c3        1 MOL      0.210412
     27 N3         -0.9060    9.5100    2.7910 n4        1 MOL     -0.520507
     28 H8         -0.6220    4.5730    0.4990 hn        1 MOL      0.243305
     29 H9         -2.6870    6.5320    0.1410 h1        1 MOL      0.043262
     30 H10        -1.0680    7.7540   -1.1990 hc        1 MOL      0.114686
     31 H11        -0.3250    6.2140   -1.6880 hc        1 MOL      0.114686
     32 H12         1.1010    7.6540   -0.3740 hc        1 MOL      0.039366
     33 H13         0.8070    6.0730    0.4510 hc        1 MOL      0.039366
     34 H14         0.7660    7.4730    2.1380 hc        1 MOL      0.040132
     35 H15        -0.9240    7.1600    1.6340 hc        1 MOL      0.040132
     36 H16        -0.9880    9.4130    0.5810 hx        1 MOL      0.055657
     37 H17         0.5410    9.6760    1.2580 hx        1 MOL      0.055657
     38 H18        -0.2030    9.3280    3.4870 hn        1 MOL      0.362268
     39 H19        -1.1780   10.4730    2.9440 hn        1 MOL      0.362268
     40 H20        -1.6830    8.9040    3.0260 hn        1 MOL      0.362268
     41 N4         -3.5540    4.3780   -1.7570 n         1 MOL     -0.273200
     42 C13        -4.4660    3.9050   -2.8370 c3        1 MOL      0.053465
     43 C14        -5.7120    3.1190   -2.1700 c         1 MOL      0.238870
     44 O6         -6.7100    2.8850   -2.8240 o         1 MOL     -0.452616
     45 C15        -3.7180    3.0480   -3.8270 c3        1 MOL     -0.086752
     46 C16        -2.8650    2.0390   -3.0830 c         1 MOL      0.843276
     47 O7         -3.2790    0.8830   -2.8970 o         1 MOL     -0.756581
     48 O8         -1.6690    2.3190   -2.8150 o         1 MOL     -0.756581
     49 H21        -3.2980    3.7690   -0.9870 hn        1 MOL     -0.012349
     50 H22        -4.8300    4.7800   -3.3630 h1        1 MOL      0.100581
     51 H23        -3.1200    3.6860   -4.4680 hc        1 MOL      0.026932
     52 H24        -4.4270    2.5040   -4.4430 hc        1 MOL      0.026932
     53 N5         -5.5780    2.7010   -0.9210 n         1 MOL      0.170001
     54 C17        -6.6130    2.1080   -0.0520 c3        1 MOL     -0.287903
     55 C18        -7.0470    0.6660   -0.4560 c         1 MOL      0.645930
     56 O9         -8.1780    0.5180   -0.9970 o         1 MOL     -0.554589
     57 H25        -4.7600    2.9210   -0.3740 hn        1 MOL      0.031958
     58 H26        -7.4910    2.7430   -0.0180 h1        1 MOL      0.098945
     59 H27        -6.1460    1.9520    0.9230 h1        1 MOL      0.098945
     60 N6         -6.1430   -0.3070   -0.2860 n         1 MOL     -0.605649
     61 C19        -6.3950   -1.7250   -0.6810 c3        1 MOL      0.179080
     62 C20        -5.9690   -2.7090    0.3950 c         1 MOL      0.263577
     63 O10        -5.9760   -3.9100    0.1450 o         1 MOL     -0.425132
     64 C21        -5.7950   -2.0760   -2.0520 c3        1 MOL     -0.201308
     65 C22        -4.2900   -2.4090   -2.0330 c         1 MOL      0.635075
     66 N7         -3.9340   -3.4400   -2.7530 n         1 MOL     -0.712874
     67 O11        -3.4300   -1.8140   -1.3330 o         1 MOL     -0.668085
     68 H28        -5.2520   -0.1370    0.1710 hn        1 MOL      0.321038
     69 H29        -7.4820   -1.8500   -0.6970 h1        1 MOL      0.093246
     70 H30        -5.9390   -1.2790   -2.7840 hc        1 MOL      0.091207
     71 H31        -6.3650   -2.8880   -2.5190 hc        1 MOL      0.091207
     72 H32        -4.6670   -4.0400   -3.1100 hn        1 MOL      0.353016
     73 H33        -2.9860   -3.7280   -2.8750 hn        1 MOL      0.353016
     74 N8         -5.5320   -2.2060    1.5780 n         1 MOL     -0.244261
     75 C23        -5.1050   -3.1340    2.6640 c3        1 MOL     -0.219282
     76 C24        -3.7060   -3.6740    2.5170 c         1 MOL      0.602947
     77 O12        -3.3330   -4.5640    3.2780 o         1 MOL     -0.565608
     78 H34        -5.5390   -1.2190    1.7590 hn        1 MOL      0.286909
     79 H35        -5.8250   -3.9460    2.7860 h1        1 MOL      0.129979
     80 H36        -5.2520   -2.5740    3.5860 h1        1 MOL      0.129979
     81 N9         -2.8310   -3.2590    1.5600 n         1 MOL     -0.602124
     82 C25        -1.5220   -3.8070    1.2600 c3        1 MOL      0.772023
     83 C26        -0.4990   -2.7400    1.0590 c         1 MOL      0.184586
     84 O13        -0.7470   -1.7270    0.3900 o         1 MOL     -0.667918
     85 C27        -1.5430   -4.8870    0.1490 c3        1 MOL     -0.170107
     86 C28        -2.4840   -6.0840    0.3750 ca        1 MOL      0.167562
     87 C29        -3.6900   -6.1250   -0.2510 ca        1 MOL     -0.255434
     88 C30        -2.1350   -7.1340    1.2160 ca        1 MOL     -0.255434
     89 C31        -4.6440   -7.1560   -0.0190 ca        1 MOL     -0.157091
     90 C32        -3.0180   -8.1980    1.4720 ca        1 MOL     -0.157091
     91 C33        -4.2140   -8.2650    0.7730 ca        1 MOL      0.215773
     92 O14        -5.1050   -9.2080    1.0890 oh        1 MOL     -0.459358
     93 H37        -3.1720   -2.5980    0.8700 hn        1 MOL      0.406221
     94 H38        -1.1970   -4.2830    2.1880 h1        1 MOL     -0.092246
     95 H39        -0.5480   -5.2620   -0.0840 hc        1 MOL      0.017130
     96 H40        -1.7840   -4.3730   -0.7820 hc        1 MOL      0.017130
     97 H41        -3.9850   -5.3220   -0.9150 ha        1 MOL      0.117590
     98 H42        -1.1620   -7.0930    1.6980 ha        1 MOL      0.117590
     99 H43        -5.6900   -7.1540   -0.2750 ha        1 MOL      0.133229
    100 H44        -2.9030   -8.8920    2.3010 ha        1 MOL      0.133229
    101 H45        -4.7560   -9.8570    1.7040 ho        1 MOL      0.358673
    102 N10         0.6720   -2.9380    1.6010 n         1 MOL     -0.402509
    103 C34         1.8720   -2.1540    1.5400 c3        1 MOL      0.004088
    104 C35         3.0700   -3.0810    1.0640 c         1 MOL      0.462946
    105 O15         3.4500   -4.0590    1.8310 o         1 MOL     -0.519207
    106 C36         2.0930   -1.5290    2.9430 c3        1 MOL      0.002809
    107 C37         0.9210   -0.5100    3.2050 c3        1 MOL      0.190441
    108 C38         3.3870   -0.7110    3.0160 c3        1 MOL     -0.061803
    109 C39         1.0460    0.2650    4.5610 c3        1 MOL     -0.190751
    110 H46         0.8280   -3.8410    2.0240 hn        1 MOL      0.264420
    111 H47         1.7120   -1.3500    0.8260 h1        1 MOL      0.188812
    112 H48         2.0840   -2.2990    3.7070 hc        1 MOL      0.024196
    113 H49         0.0040   -1.1040    3.3000 hc        1 MOL     -0.016553
    114 H50         0.8720    0.1830    2.3620 hc        1 MOL     -0.016553
    115 H51         4.2100   -1.3530    2.6870 hc        1 MOL      0.004694
    116 H52         3.2760    0.1450    2.3540 hc        1 MOL      0.004694
    117 H53         3.5730   -0.3640    4.0320 hc        1 MOL      0.004694
    118 H54         1.0300   -0.4040    5.4200 hc        1 MOL      0.042287
    119 H55         1.9000    0.9430    4.6110 hc        1 MOL      0.042287
    120 H56         0.1370    0.8710    4.5800 hc        1 MOL      0.042287
    121 N11         3.5800   -2.7790   -0.1710 n         1 MOL     -0.327469
    122 C40         4.8390   -3.3440   -0.6420 c3        1 MOL     -0.077337
    123 C41         6.2010   -2.6980   -0.0570 c         1 MOL      0.370809
    124 O16         6.0980   -1.5980    0.5450 o         1 MOL     -0.289036
    125 C42         4.7960   -3.1970   -2.1610 c3        1 MOL     -0.026826
    126 O17         4.6960   -1.8310   -2.5660 oh        1 MOL     -0.547720
    127 H57         3.1420   -2.0160   -0.6680 hn        1 MOL      0.293509
    128 H58         4.7560   -4.4290   -0.5420 h1        1 MOL      0.080235
    129 H59         3.8970   -3.6410   -2.6060 h1        1 MOL      0.089164
    130 H60         5.6250   -3.7040   -2.6650 h1        1 MOL      0.089164
    131 H61         3.8230   -1.4620   -2.4800 ho        1 MOL      0.362622
    132 N12         7.3980   -3.2730   -0.3930 n         1 MOL     -0.431888
    133 C43         8.6670   -2.6710    0.0760 c3        1 MOL      0.239775
    134 C44         8.9190   -1.2000   -0.4750 c         1 MOL      0.416238
    135 O18         9.5100   -0.4040    0.1550 o         1 MOL     -0.471401
    136 C45         9.7500   -3.6890   -0.2290 c3        1 MOL     -0.376241
    137 H62         7.3990   -4.1750   -0.8380 hn        1 MOL      0.305575
    138 H63         8.6560   -2.6040    1.1650 h1        1 MOL      0.058810
    139 H64         9.4020   -4.2160   -1.1270 hc        1 MOL      0.106011
    140 H65        10.7470   -3.2590   -0.2850 hc        1 MOL      0.106011
    141 H66         9.7450   -4.3820    0.6160 hc        1 MOL      0.106011
    142 N13         8.4600   -0.9710   -1.7680 n         1 MOL     -0.364338
    143 C46         8.4890    0.2960   -2.4920 c3        1 MOL      0.167091
    144 C47         7.5930    1.3950   -1.7370 c         1 MOL      0.280571
    145 O19         8.1010    2.5500   -1.5890 o         1 MOL     -0.479425
    146 C48         8.1200   -0.0490   -3.8860 c3        1 MOL     -0.403886
    147 H67         8.1560   -1.7890   -2.2820 hn        1 MOL      0.237682
    148 H68         9.5480    0.5690   -2.4110 h1        1 MOL      0.086077
    149 H69         7.6740    0.7490   -4.4670 hc        1 MOL      0.110727
    150 H70         9.0840   -0.2420   -4.3590 hc        1 MOL      0.110727
    151 H71         7.4410   -0.8950   -4.0080 hc        1 MOL      0.110727
    152 N14         6.3930    0.9650   -1.2320 n         1 MOL      0.073930
    153 C49         5.5210    1.7810   -0.5070 c3        1 MOL     -0.215495
    154 C50         5.9730    1.9780    1.0060 c         1 MOL      0.421818
    155 O20         5.8060    3.1560    1.5160 o         1 MOL     -0.571347
    156 C51         4.0640    1.2320   -0.4600 c3        1 MOL      0.122504
    157 C52         3.3470    1.1780   -1.8210 c3        1 MOL     -0.240605
    158 C53         2.1050    0.2660   -1.7650 c         1 MOL      0.861690
    159 O21         2.2140   -0.9550   -1.7750 o         1 MOL     -0.792334
    160 O22         1.0150    0.7600   -1.5270 o         1 MOL     -0.792334
    161 H72         6.1680   -0.0100   -1.3290 hn        1 MOL      0.052778
    162 H73         5.3610    2.7810   -0.9070 h1        1 MOL      0.108775
    163 H74         3.4190    1.7680    0.2300 hc        1 MOL      0.033058
    164 H75         4.1760    0.2280   -0.0260 hc        1 MOL      0.033058
    165 H76         4.0390    0.7900   -2.5760 hc        1 MOL      0.048205
    166 H77         2.9830    2.1750   -2.0760 hc        1 MOL      0.048205
    167 N15         6.5050    0.9770    1.6720 n         1 MOL      0.018725
    168 C54         6.9800    1.2080    3.0410 c3        1 MOL     -0.355304
    169 H78         7.2140    0.2530    3.5110 h1        1 MOL      0.127325
    170 H79         7.8750    1.8290    3.0160 h1        1 MOL      0.127325
    171 H80         6.2030    1.7140    3.6150 h1        1 MOL      0.127325
    172 H81         6.4550    0.0720    1.2150 hn        1 MOL      0.024814
    173 Ca1        -1.3400   -0.2100   -1.7150 Ca        1 MOL      1.825513
    174 O23        -0.0890   -2.6110   -2.2560 oh        1 MOL     -0.868791
    175 H82         0.7280   -2.1010   -2.2230 ho        1 MOL      0.418708
    176 H83         0.1920   -3.5280   -2.1720 ho        1 MOL      0.418708
    177 O24        -1.0960   -0.5330   -4.4080 oh        1 MOL     -0.868791
    178 H84        -1.6170   -1.0260   -5.0350 ho        1 MOL      0.418708
    179 H85        -0.1900   -0.7950   -4.5830 ho        1 MOL      0.418708
@<TRIPOS>BOND
     1    1    2 1   
     2    1    4 1   
     3    1    5 1   
     4    1    6 1   
     5    2    3 2   
     6    2    7 1   
     7    7    8 1   
     8    7   15 1   
     9    8    9 1   
    10    8   11 1   
    11    8   16 1   
    12    9   10 2   
    13    9   19 1   
    14   11   12 1   
    15   11   17 1   
    16   11   18 1   
    17   12   13 1   
    18   12   14 1   
    19   19   20 1   
    20   19   28 1   
    21   20   21 1   
    22   20   23 1   
    23   20   29 1   
    24   21   22 2   
    25   21   41 1   
    26   23   24 1   
    27   23   30 1   
    28   23   31 1   
    29   24   25 1   
    30   24   32 1   
    31   24   33 1   
    32   25   26 1   
    33   25   34 1   
    34   25   35 1   
    35   26   27 1   
    36   26   36 1   
    37   26   37 1   
    38   27   38 1   
    39   27   39 1   
    40   27   40 1   
    41   41   42 1   
    42   41   49 1   
    43   42   43 1   
    44   42   45 1   
    45   42   50 1   
    46   43   44 2   
    47   43   53 1   
    48   45   46 1   
    49   45   51 1   
    50   45   52 1   
    51   46   47 1   
    52   46   48 1   
    53   53   54 1   
    54   53   57 1   
    55   54   55 1   
    56   54   58 1   
    57   54   59 1   
    58   55   56 2   
    59   55   60 1   
    60   60   61 1   
    61   60   68 1   
    62   61   62 1   
    63   61   64 1   
    64   61   69 1   
    65   62   63 2   
    66   62   74 1   
    67   64   65 1   
    68   64   70 1   
    69   64   71 1   
    70   65   66 1   
    71   65   67 2   
    72   66   72 1   
    73   66   73 1   
    74   74   75 1   
    75   74   78 1   
    76   75   76 1   
    77   75   79 1   
    78   75   80 1   
    79   76   77 2   
    80   76   81 1   
    81   81   82 1   
    82   81   93 1   
    83   82   83 1   
    84   82   85 1   
    85   82   94 1   
    86   83   84 2   
    87   83  102 1   
    88   85   86 1   
    89   85   95 1   
    90   85   96 1   
    91   86   87 ar  
    92   86   88 ar  
    93   87   89 ar  
    94   87   97 1   
    95   88   90 ar  
    96   88   98 1   
    97   89   91 ar  
    98   89   99 1   
    99   90   91 ar  
   100   90  100 1   
   101   91   92 1   
   102   92  101 1   
   103  102  103 1   
   104  102  110 1   
   105  103  104 1   
   106  103  106 1   
   107  103  111 1   
   108  104  105 2   
   109  104  121 1   
   110  106  107 1   
   111  106  108 1   
   112  106  112 1   
   113  107  109 1   
   114  107  113 1   
   115  107  114 1   
   116  108  115 1   
   117  108  116 1   
   118  108  117 1   
   119  109  118 1   
   120  109  119 1   
   121  109  120 1   
   122  121  122 1   
   123  121  127 1   
   124  122  123 1   
   125  122  125 1   
   126  122  128 1   
   127  123  124 2   
   128  123  132 1   
   129  125  126 1   
   130  125  129 1   
   131  125  130 1   
   132  126  131 1   
   133  132  133 1   
   134  132  137 1   
   135  133  134 1   
   136  133  136 1   
   137  133  138 1   
   138  134  135 2   
   139  134  142 1   
   140  136  139 1   
   141  136  140 1   
   142  136  141 1   
   143  142  143 1   
   144  142  147 1   
   145  143  144 1   
   146  143  146 1   
   147  143  148 1   
   148  144  145 2   
   149  144  152 1   
   150  146  149 1   
   151  146  150 1   
   152  146  151 1   
   153  152  153 1   
   154  152  161 1   
   155  153  154 1   
   156  153  156 1   
   157  153  162 1   
   158  154  155 2   
   159  154  167 1   
   160  156  157 1   
   161  156  163 1   
   162  156  164 1   
   163  157  158 1   
   164  157  165 1   
   165  157  166 1   
   166  158  159 1   
   167  158  160 1   
   168  167  168 1   
   169  167  172 1   
   170  168  169 1   
   171  168  170 1   
   172  168  171 1   
   173  174  175 1   
   174  174  176 1   
   175  177  178 1   
   176  177  179 1   
@<TRIPOS>SUBSTRUCTURE
     1 MOL         1 TEMP              0 ****  ****    0 ROOT
