@<TRIPOS>MOLECULE
MOL
  186   183     1     0     0
SMALL
resp


@<TRIPOS>ATOM
      1 C1          0.5470   -2.2750    5.8800 c3        1 MOL     -0.232431
      2 C2          0.8670   -2.1680    4.3240 c         1 MOL      0.703178
      3 O1          0.3260   -2.9210    3.4390 o         1 MOL     -0.610351
      4 H1          1.0800   -1.4880    6.4140 hc        1 MOL      0.058116
      5 H2         -0.5250   -2.1610    6.0400 hc        1 MOL      0.058116
      6 H3          0.8690   -3.2480    6.2520 hc        1 MOL      0.058116
      7 N1          1.9820   -1.4730    3.9670 n         1 MOL     -0.589853
      8 C3          2.6140   -1.4650    2.6540 c3        1 MOL      0.310650
      9 C4          3.2240   -2.8540    2.3560 c         1 MOL      0.476959
     10 O2          4.1890   -3.2940    2.9950 o         1 MOL     -0.570432
     11 C5          3.6850   -0.4130    2.8330 c3        1 MOL     -0.315431
     12 C6          4.5760   -0.1170    1.6000 c         1 MOL      0.606504
     13 O3          5.7380    0.3060    1.7860 o         1 MOL     -0.568672
     14 O4          4.0730   -0.4170    0.5210 o         1 MOL     -0.568672
     15 H4          2.4590   -0.8950    4.6520 hn        1 MOL      0.309210
     16 H5          1.9460   -1.1730    1.8430 h1        1 MOL     -0.024524
     17 H6          4.4010   -0.7130    3.5970 hc        1 MOL      0.043721
     18 H7          3.2230    0.4320    3.3450 hc        1 MOL      0.043721
     19 N2          2.5360   -3.5210    1.4810 n         1 MOL     -0.278309
     20 C7          2.9220   -4.9240    1.0490 c3        1 MOL     -0.017030
     21 C8          4.1090   -4.9650    0.1090 c         1 MOL      0.370782
     22 O5          5.0530   -5.6890    0.2990 o         1 MOL     -0.553822
     23 C9          1.6530   -5.5780    0.5240 c3        1 MOL      0.252878
     24 C10         0.4780   -5.7790    1.4540 c3        1 MOL      0.197237
     25 C11         1.9480   -6.9100   -0.2070 c3        1 MOL     -0.248785
     26 C12         0.6090   -6.7020    2.6590 c3        1 MOL     -0.279881
     27 H8          1.7230   -3.1140    1.0390 hn        1 MOL      0.256470
     28 H9          3.1830   -5.5120    1.9290 h1        1 MOL      0.065495
     29 H10         1.3210   -4.9290   -0.2940 hc        1 MOL     -0.084422
     30 H11        -0.4110   -6.0660    0.8910 hc        1 MOL     -0.028798
     31 H12         0.1720   -4.7750    1.7450 hc        1 MOL     -0.028798
     32 H13         1.0360   -7.2990   -0.6500 hc        1 MOL      0.037546
     33 H14         2.5940   -6.8150   -1.0700 hc        1 MOL      0.037546
     34 H15         2.3660   -7.6070    0.5260 hc        1 MOL      0.037546
     35 H16        -0.4230   -6.8470    2.9880 hc        1 MOL      0.051379
     36 H17         1.0020   -7.6560    2.3310 hc        1 MOL      0.051379
     37 H18         1.2510   -6.2420    3.4150 hc        1 MOL      0.051379
     38 N3          4.1660   -4.1340   -0.9120 n         1 MOL     -0.190189
     39 C13         5.1900   -4.1860   -1.9390 c3        1 MOL     -0.046928
     40 C14         6.4960   -3.4810   -1.5380 c         1 MOL      0.455404
     41 O6          7.5330   -3.6830   -2.1260 o         1 MOL     -0.546954
     42 C15         4.7070   -3.6590   -3.2740 c3        1 MOL     -0.124406
     43 C16         4.0080   -2.3510   -3.2890 c         1 MOL      0.857978
     44 O7          3.5990   -2.0170   -4.4170 o         1 MOL     -0.749176
     45 O8          3.7260   -1.7800   -2.2370 o         1 MOL     -0.749176
     46 H19         3.5250   -3.3580   -0.9150 hn        1 MOL      0.197820
     47 H20         5.5220   -5.2010   -2.1620 h1        1 MOL      0.080995
     48 H21         3.9480   -4.3800   -3.5750 hc        1 MOL      0.026660
     49 H22         5.5020   -3.7380   -4.0140 hc        1 MOL      0.026660
     50 N4          6.4990   -2.5550   -0.5720 n         1 MOL     -0.182361
     51 C17         7.7350   -1.8190   -0.1330 c3        1 MOL     -0.137939
     52 C18         7.9110   -0.5710   -1.0160 c         1 MOL      0.551069
     53 O9          8.9600   -0.5520   -1.6500 o         1 MOL     -0.573314
     54 H23         5.5840   -2.2510   -0.2560 hn        1 MOL      0.213617
     55 H24         8.6120   -2.4620   -0.2230 h1        1 MOL      0.078484
     56 H25         7.6710   -1.4780    0.8950 h1        1 MOL      0.078484
     57 N5          6.9060    0.2960   -1.1560 n         1 MOL     -0.229103
     58 C19         7.1360    1.6680   -1.6970 c3        1 MOL      0.137964
     59 C20         6.9960    2.8570   -0.7530 c         1 MOL      0.413941
     60 O10         7.1030    4.0080   -1.2400 o         1 MOL     -0.560989
     61 C21         6.4060    1.8740   -3.0440 c3        1 MOL     -0.360071
     62 C22         4.8740    1.7030   -2.8180 c         1 MOL      0.717218
     63 O11         4.3030    1.9960   -1.7070 o         1 MOL     -0.688334
     64 O12         4.1750    1.1820   -3.6760 o         1 MOL     -0.688334
     65 H26         6.1360    0.1630   -0.5220 hn        1 MOL      0.032913
     66 H27         8.2030    1.7330   -1.8950 h1        1 MOL      0.035640
     67 H28         6.6860    1.0400   -3.6820 hc        1 MOL      0.105308
     68 H29         6.6200    2.8610   -3.4690 hc        1 MOL      0.105308
     69 N6          6.7960    2.5620    0.5320 n         1 MOL     -0.245472
     70 C23         6.6940    3.5380    1.6230 c3        1 MOL     -0.124261
     71 C24         5.2680    4.1090    1.8430 c         1 MOL      0.581788
     72 O13         5.1710    5.0400    2.6680 o         1 MOL     -0.611164
     73 H30         6.5830    1.5750    0.6400 hn        1 MOL      0.172476
     74 H31         7.3370    4.3990    1.4580 h1        1 MOL      0.089369
     75 H32         6.8880    3.0590    2.5820 h1        1 MOL      0.089369
     76 N7          4.2260    3.6960    1.1430 n         1 MOL     -0.297543
     77 C25         2.8530    4.0950    1.3660 c3        1 MOL      0.046030
     78 C26         1.7840    3.0040    1.3140 c         1 MOL      0.399876
     79 O14         1.9010    1.9450    0.6860 o         1 MOL     -0.472866
     80 C27         2.4210    5.2230    0.4400 c3        1 MOL     -0.024745
     81 C28         3.2650    6.4920    0.5710 c3        1 MOL     -0.250274
     82 C29         2.8640    7.6340   -0.3870 c         1 MOL      0.623815
     83 N8          3.3970    7.6430   -1.5580 n         1 MOL     -0.746836
     84 O15         2.0280    8.5160   -0.1220 o         1 MOL     -0.588269
     85 H33         4.3790    3.1530    0.3000 hn        1 MOL      0.188754
     86 H34         2.7680    4.4450    2.4030 h1        1 MOL      0.065965
     87 H35         1.3670    5.4800    0.5200 hc        1 MOL      0.059577
     88 H36         2.5920    4.8230   -0.5640 hc        1 MOL      0.059577
     89 H37         4.3270    6.2450    0.5180 hc        1 MOL      0.085663
     90 H38         3.0840    6.9240    1.5620 hc        1 MOL      0.085663
     91 H39         4.0290    6.8990   -1.8300 hn        1 MOL      0.353545
     92 H40         3.1670    8.3980   -2.1830 hn        1 MOL      0.353545
     93 N9          0.6730    3.3190    2.0460 n         1 MOL     -0.362991
     94 C30        -0.5760    2.5620    2.0870 c3        1 MOL      0.025065
     95 C31        -1.5500    3.1660    1.1250 c         1 MOL      0.437213
     96 O16        -2.0160    4.2600    1.4230 o         1 MOL     -0.552357
     97 C32        -1.1580    2.4500    3.5260 c3        1 MOL      0.262587
     98 C33        -2.1790    1.2900    3.5910 c3        1 MOL     -0.193676
     99 C34        -0.0770    2.2510    4.6420 c3        1 MOL     -0.193676
    100 H41         0.6690    4.2530    2.4250 hn        1 MOL      0.253167
    101 H42        -0.2910    1.5760    1.7110 h1        1 MOL      0.115282
    102 H43        -1.7040    3.3240    3.8880 hc        1 MOL     -0.033216
    103 H44        -1.7370    0.3290    3.3260 hc        1 MOL      0.023718
    104 H45        -2.6610    1.1660    4.5570 hc        1 MOL      0.023718
    105 H46        -2.8830    1.6010    2.8120 hc        1 MOL      0.023718
    106 H47         0.2300    1.2140    4.5030 hc        1 MOL      0.023718
    107 H48         0.7620    2.9550    4.5510 hc        1 MOL      0.023718
    108 H49        -0.5390    2.3780    5.6190 hc        1 MOL      0.023718
    109 N10        -1.8660    2.3760    0.0720 n         1 MOL     -0.279182
    110 C35        -3.0170    2.7250   -0.8950 c3        1 MOL      0.059165
    111 C36        -4.3060    2.0870   -0.3720 c         1 MOL      0.387020
    112 O17        -4.2950    1.3280    0.6270 o         1 MOL     -0.268251
    113 C37        -2.7660    2.2770   -2.3670 c3        1 MOL     -0.461095
    114 C38        -2.9640    0.8560   -2.7440 c         1 MOL      0.591259
    115 N11        -2.1470   -0.0260   -2.3140 n         1 MOL     -0.671187
    116 O18        -4.0190    0.5270   -3.2630 o         1 MOL     -0.561090
    117 H50        -1.3260    1.5380   -0.0920 hn        1 MOL      0.152945
    118 H51        -3.1530    3.8000   -0.9760 h1        1 MOL      0.094811
    119 H52        -1.7460    2.4690   -2.7250 hc        1 MOL      0.152962
    120 H53        -3.3620    2.8960   -3.0400 hc        1 MOL      0.152962
    121 H54        -1.2640    0.2530   -1.8970 hn        1 MOL      0.340581
    122 H55        -2.1420   -0.9170   -2.7740 hn        1 MOL      0.340581
    123 N12        -5.4760    2.3930   -0.9870 n         1 MOL     -0.420169
    124 C39        -6.7650    1.8370   -0.4550 c3        1 MOL     -0.105579
    125 C40        -6.7770    0.3330   -0.3720 c         1 MOL      0.698530
    126 O19        -7.2960   -0.2000    0.6530 o         1 MOL     -0.546074
    127 C41        -8.0220    2.2430   -1.3280 c3        1 MOL      0.211350
    128 C42        -9.3120    1.8390   -0.7280 ca        1 MOL     -0.206494
    129 C43        -9.6900    2.3250    0.5430 ca        1 MOL     -0.010852
    130 C44       -10.0270    0.7740   -1.3000 ca        1 MOL     -0.010852
    131 C45       -10.8740    1.8870    1.1650 ca        1 MOL     -0.415857
    132 C46       -11.1280    0.2240   -0.5910 ca        1 MOL     -0.415857
    133 C47       -11.5850    0.7950    0.6170 ca        1 MOL      0.532395
    134 O20       -12.6850    0.4190    1.2490 oh        1 MOL     -0.588767
    135 H56        -5.5010    3.0460   -1.7660 hn        1 MOL      0.267868
    136 H57        -6.8500    2.1620    0.5840 h1        1 MOL      0.062169
    137 H58        -7.9720    1.9700   -2.3780 hc        1 MOL     -0.015196
    138 H59        -8.1490    3.3220   -1.2950 hc        1 MOL     -0.015196
    139 H60        -9.1010    3.1100    0.9920 ha        1 MOL      0.097305
    140 H61        -9.5960    0.2640   -2.1530 ha        1 MOL      0.097305
    141 H62       -11.2100    2.3450    2.0870 ha        1 MOL      0.165706
    142 H63       -11.6400   -0.6060   -1.0500 ha        1 MOL      0.165706
    143 H64       -13.3380    0.0210    0.6660 ho        1 MOL      0.393179
    144 N13        -6.2370   -0.4020   -1.3160 n         1 MOL     -0.106793
    145 C48        -6.1890   -1.9360   -1.3060 c3        1 MOL     -0.168103
    146 C49        -5.2190   -2.5560   -0.2310 c         1 MOL      0.332603
    147 O21        -5.3570   -3.7110    0.1930 o         1 MOL     -0.499846
    148 C50        -5.8110   -2.5440   -2.6780 c3        1 MOL      0.177566
    149 C51        -6.5730   -1.8910   -3.8560 c3        1 MOL     -0.379243
    150 C52        -8.0860   -1.7370   -3.7350 c         1 MOL      0.752798
    151 O22        -8.6930   -0.7390   -4.1490 o         1 MOL     -0.710080
    152 O23        -8.7270   -2.6590   -3.1880 o         1 MOL     -0.710080
    153 H65        -5.9520    0.1610   -2.1110 hn        1 MOL      0.145511
    154 H66        -7.1730   -2.3480   -1.0980 h1        1 MOL      0.128691
    155 H67        -5.9870   -3.6200   -2.6590 hc        1 MOL     -0.003445
    156 H68        -4.7240   -2.4820   -2.8060 hc        1 MOL     -0.003445
    157 H69        -6.3500   -2.4900   -4.7360 hc        1 MOL      0.057603
    158 H70        -6.1950   -0.8710   -3.9690 hc        1 MOL      0.057603
    159 N14        -4.2690   -1.7250    0.1660 n         1 MOL     -0.163859
    160 C53        -3.4080   -2.1270    1.2540 c3        1 MOL     -0.050087
    161 C54        -3.9790   -1.7330    2.6640 c         1 MOL      0.409608
    162 O24        -3.6620   -2.3850    3.6640 o         1 MOL     -0.555115
    163 C55        -2.0360   -1.4510    1.1130 c3        1 MOL      0.268399
    164 C56        -1.1300   -2.1470    0.1150 c3        1 MOL     -0.115329
    165 C57         0.0650   -1.3350   -0.4310 c         1 MOL      0.493259
    166 O25         1.2180   -1.9160   -0.5110 o         1 MOL     -0.596060
    167 O26         0.0510   -0.0880   -0.6710 o         1 MOL     -0.596060
    168 H71        -4.3100   -0.7630   -0.1090 hn        1 MOL      0.135892
    169 H72        -3.1850   -3.1900    1.2600 h1        1 MOL      0.095417
    170 H73        -1.4630   -1.5390    2.0310 hc        1 MOL     -0.045685
    171 H74        -2.2150   -0.4440    0.7350 hc        1 MOL     -0.045685
    172 H75        -1.6390   -2.6660   -0.7090 hc        1 MOL      0.023544
    173 H76        -0.7710   -2.9810    0.7070 hc        1 MOL      0.023544
    174 N15        -5.0200   -0.8260    2.6720 n         1 MOL      0.040893
    175 C58        -5.8050   -0.4520    3.8410 c3        1 MOL     -0.237902
    176 H77        -6.1050   -1.3510    4.3780 h1        1 MOL      0.085657
    177 H78        -5.2030    0.1790    4.4950 h1        1 MOL      0.085657
    178 H79        -6.6920    0.0950    3.5230 h1        1 MOL      0.085657
    179 H80        -5.2160   -0.4000    1.7810 hn        1 MOL     -0.067307
    180 Ca1         2.4690    0.3350   -1.4160 Ca        1 MOL      1.622102
    181 O27         1.0870    2.2720   -2.7640 oh        1 MOL     -0.850104
    182 H81         1.2850    3.1740   -3.0170 ho        1 MOL      0.400258
    183 H82         0.6410    1.8980   -3.5190 ho        1 MOL      0.400258
    184 O28         1.3710   -0.8950   -3.6000 oh        1 MOL     -0.850104
    185 H83         1.0940   -0.4230   -4.3840 ho        1 MOL      0.400258
    186 H84         2.0930   -1.4440   -3.8990 ho        1 MOL      0.400258
@<TRIPOS>BOND
     1    1    2 1   
     2    1    4 1   
     3    1    5 1   
     4    1    6 1   
     5    2    3 2   
     6    2    7 1   
     7    7    8 1   
     8    7   15 1   
     9    8    9 1   
    10    8   11 1   
    11    8   16 1   
    12    9   10 2   
    13    9   19 1   
    14   11   12 1   
    15   11   17 1   
    16   11   18 1   
    17   12   13 1   
    18   12   14 1   
    19   19   20 1   
    20   19   27 1   
    21   20   21 1   
    22   20   23 1   
    23   20   28 1   
    24   21   22 2   
    25   21   38 1   
    26   23   24 1   
    27   23   25 1   
    28   23   29 1   
    29   24   26 1   
    30   24   30 1   
    31   24   31 1   
    32   25   32 1   
    33   25   33 1   
    34   25   34 1   
    35   26   35 1   
    36   26   36 1   
    37   26   37 1   
    38   38   39 1   
    39   38   46 1   
    40   39   40 1   
    41   39   42 1   
    42   39   47 1   
    43   40   41 2   
    44   40   50 1   
    45   42   43 1   
    46   42   48 1   
    47   42   49 1   
    48   43   44 1   
    49   43   45 1   
    50   50   51 1   
    51   50   54 1   
    52   51   52 1   
    53   51   55 1   
    54   51   56 1   
    55   52   53 2   
    56   52   57 1   
    57   57   58 1   
    58   57   65 1   
    59   58   59 1   
    60   58   61 1   
    61   58   66 1   
    62   59   60 2   
    63   59   69 1   
    64   61   62 1   
    65   61   67 1   
    66   61   68 1   
    67   62   63 1   
    68   62   64 1   
    69   69   70 1   
    70   69   73 1   
    71   70   71 1   
    72   70   74 1   
    73   70   75 1   
    74   71   72 2   
    75   71   76 1   
    76   76   77 1   
    77   76   85 1   
    78   77   78 1   
    79   77   80 1   
    80   77   86 1   
    81   78   79 2   
    82   78   93 1   
    83   80   81 1   
    84   80   87 1   
    85   80   88 1   
    86   81   82 1   
    87   81   89 1   
    88   81   90 1   
    89   82   83 1   
    90   82   84 2   
    91   83   91 1   
    92   83   92 1   
    93   93   94 1   
    94   93  100 1   
    95   94   95 1   
    96   94   97 1   
    97   94  101 1   
    98   95   96 2   
    99   95  109 1   
   100   97   98 1   
   101   97   99 1   
   102   97  102 1   
   103   98  103 1   
   104   98  104 1   
   105   98  105 1   
   106   99  106 1   
   107   99  107 1   
   108   99  108 1   
   109  109  110 1   
   110  109  117 1   
   111  110  111 1   
   112  110  113 1   
   113  110  118 1   
   114  111  112 2   
   115  111  123 1   
   116  113  114 1   
   117  113  119 1   
   118  113  120 1   
   119  114  115 1   
   120  114  116 2   
   121  115  121 1   
   122  115  122 1   
   123  123  124 1   
   124  123  135 1   
   125  124  125 1   
   126  124  127 1   
   127  124  136 1   
   128  125  126 2   
   129  125  144 1   
   130  127  128 1   
   131  127  137 1   
   132  127  138 1   
   133  128  129 ar  
   134  128  130 ar  
   135  129  131 ar  
   136  129  139 1   
   137  130  132 ar  
   138  130  140 1   
   139  131  133 ar  
   140  131  141 1   
   141  132  133 ar  
   142  132  142 1   
   143  133  134 1   
   144  134  143 1   
   145  144  145 1   
   146  144  153 1   
   147  145  146 1   
   148  145  148 1   
   149  145  154 1   
   150  146  147 2   
   151  146  159 1   
   152  148  149 1   
   153  148  155 1   
   154  148  156 1   
   155  149  150 1   
   156  149  157 1   
   157  149  158 1   
   158  150  151 1   
   159  150  152 1   
   160  159  160 1   
   161  159  168 1   
   162  160  161 1   
   163  160  163 1   
   164  160  169 1   
   165  161  162 2   
   166  161  174 1   
   167  163  164 1   
   168  163  170 1   
   169  163  171 1   
   170  164  165 1   
   171  164  172 1   
   172  164  173 1   
   173  165  166 1   
   174  165  167 1   
   175  174  175 1   
   176  174  179 1   
   177  175  176 1   
   178  175  177 1   
   179  175  178 1   
   180  181  182 1   
   181  181  183 1   
   182  184  185 1   
   183  184  186 1   
@<TRIPOS>SUBSTRUCTURE
     1 MOL         1 TEMP              0 ****  ****    0 ROOT
