@<TRIPOS>MOLECULE
MOL
  189   185     1     0     0
SMALL
resp


@<TRIPOS>ATOM
      1 C1         -0.0040    3.4140    5.9620 c3        1 MOL     -0.360105
      2 C2         -0.8560    2.9540    4.7360 c         1 MOL      0.744172
      3 O1         -1.0660    1.7560    4.7000 o         1 MOL     -0.592190
      4 H1          0.9150    2.8300    6.0040 hc        1 MOL      0.087780
      5 H2          0.2420    4.4710    5.8580 hc        1 MOL      0.087780
      6 H3         -0.5740    3.2610    6.8780 hc        1 MOL      0.087780
      7 N1         -1.3760    3.8200    3.8600 n         1 MOL     -0.595192
      8 C3         -2.2700    3.5360    2.7710 c3        1 MOL      0.236576
      9 C4         -2.2660    4.7050    1.7080 c         1 MOL      0.485895
     10 O2         -2.4450    5.8850    2.0350 o         1 MOL     -0.572836
     11 C5         -3.6830    3.2520    3.2350 c3        1 MOL     -0.359336
     12 C6         -4.4560    2.4230    2.2490 c         1 MOL      0.810929
     13 O3         -5.5850    2.0970    2.6310 o         1 MOL     -0.707382
     14 O4         -3.9990    1.9700    1.2150 o         1 MOL     -0.707382
     15 H4         -1.2770    4.8200    3.9540 hn        1 MOL      0.300649
     16 H5         -1.9430    2.6260    2.2600 h1        1 MOL      0.030584
     17 H6         -4.0890    4.2520    3.3980 hc        1 MOL      0.079192
     18 H7         -3.6510    2.6700    4.1560 hc        1 MOL      0.079192
     19 N2         -1.7970    4.3960    0.4920 n         1 MOL     -0.256531
     20 C7         -1.6220    5.3240   -0.6160 c3        1 MOL     -0.356999
     21 C8         -2.2800    4.7860   -1.8780 c         1 MOL      0.607619
     22 O5         -1.9080    5.0710   -3.0380 o         1 MOL     -0.539258
     23 C9         -0.2020    5.8920   -0.7740 c3        1 MOL      0.284598
     24 C10         0.6530    4.6090   -1.0100 c3        1 MOL     -0.003432
     25 C11         0.2020    6.6120    0.5250 c3        1 MOL     -0.290973
     26 C12         2.1110    5.0210   -1.1160 c3        1 MOL     -0.306000
     27 H8         -1.5310    3.4350    0.3250 hn        1 MOL      0.281795
     28 H9         -2.1470    6.2330   -0.3320 h1        1 MOL      0.141333
     29 H10        -0.1500    6.5570   -1.6420 hc        1 MOL     -0.018934
     30 H11         0.3240    4.0380   -1.8770 hc        1 MOL      0.078003
     31 H12         0.6640    4.0000   -0.1130 hc        1 MOL      0.078003
     32 H13         0.8880    7.4540    0.4450 hc        1 MOL      0.058168
     33 H14        -0.7190    7.0920    0.8490 hc        1 MOL      0.058168
     34 H15         0.5970    5.9130    1.2540 hc        1 MOL      0.058168
     35 H16         2.3260    5.5350   -2.0480 hc        1 MOL      0.062980
     36 H17         2.4850    5.5930   -0.2530 hc        1 MOL      0.062980
     37 H18         2.7370    4.1440   -1.2660 hc        1 MOL      0.062980
     38 N3         -3.3460    4.0100   -1.7300 n         1 MOL     -0.506495
     39 C13        -4.3070    3.6080   -2.7880 c3        1 MOL      0.141874
     40 C14        -5.7000    3.1170   -2.3960 c         1 MOL      0.323845
     41 O6         -6.7130    3.1990   -3.1450 o         1 MOL     -0.541490
     42 C15        -3.6880    2.4950   -3.6410 c3        1 MOL     -0.425042
     43 C16        -2.7340    1.4870   -2.9680 c         1 MOL      0.819913
     44 O7         -3.0510    1.0770   -1.7670 o         1 MOL     -0.665176
     45 O8         -1.8720    0.9180   -3.6810 o         1 MOL     -0.665176
     46 H19        -3.3640    3.5500   -0.8370 hn        1 MOL      0.262365
     47 H20        -4.5320    4.4740   -3.4110 h1        1 MOL      0.086841
     48 H21        -3.0830    2.9700   -4.4090 hc        1 MOL      0.119734
     49 H22        -4.4940    1.8730   -4.0290 hc        1 MOL      0.119734
     50 N4         -5.7850    2.5930   -1.1760 n         1 MOL     -0.083957
     51 C17        -7.0440    2.0020   -0.6200 c3        1 MOL     -0.257939
     52 C18        -7.2950    0.5620   -1.0620 c         1 MOL      0.582971
     53 O9         -8.3650    0.0020   -0.9650 o         1 MOL     -0.640401
     54 H23        -4.9460    2.6150   -0.6080 hn        1 MOL      0.115578
     55 H24        -7.9280    2.6210   -0.8130 h1        1 MOL      0.123641
     56 H25        -6.8820    1.8820    0.4490 h1        1 MOL      0.123641
     57 N5         -6.3400   -0.0920   -1.7020 n         1 MOL     -0.092423
     58 C19        -6.4540   -1.3460   -2.4480 c3        1 MOL      0.066610
     59 C20        -6.8850   -2.5490   -1.5440 c         1 MOL      0.415550
     60 O10        -7.2250   -3.6170   -2.0850 o         1 MOL     -0.563116
     61 C21        -5.1710   -1.6480   -3.3140 c3        1 MOL     -0.341812
     62 C22        -3.9640   -2.0780   -2.4490 c         1 MOL      0.798739
     63 O11        -3.9860   -1.8320   -1.2050 o         1 MOL     -0.709172
     64 O12        -3.0300   -2.6960   -2.9750 o         1 MOL     -0.709172
     65 H26        -5.4680    0.4090   -1.7910 hn        1 MOL      0.011205
     66 H27        -7.3020   -1.2750   -3.1230 h1        1 MOL      0.048416
     67 H28        -4.8290   -0.7910   -3.9030 hc        1 MOL      0.100317
     68 H29        -5.4880   -2.5210   -3.8820 hc        1 MOL      0.100317
     69 N6         -6.8230   -2.4290   -0.1990 n         1 MOL     -0.108082
     70 C23        -7.1290   -3.4000    0.8640 c3        1 MOL     -0.079675
     71 C24        -6.0000   -4.3730    1.2940 c         1 MOL      0.628879
     72 O13        -6.3080   -5.3830    1.8010 o         1 MOL     -0.589594
     73 H30        -6.4950   -1.5220    0.1030 hn        1 MOL      0.186266
     74 H31        -8.1110   -3.8430    0.6810 h1        1 MOL      0.042098
     75 H32        -7.3890   -2.8150    1.7370 h1        1 MOL      0.042098
     76 N7         -4.7790   -3.9380    1.0540 n         1 MOL     -0.214413
     77 C25        -3.5710   -4.6230    1.5130 c3        1 MOL     -0.024993
     78 C26        -2.3660   -3.6630    1.6140 c         1 MOL      0.539477
     79 O14        -2.5070   -2.5120    1.3750 o         1 MOL     -0.531245
     80 C27        -3.2280   -5.7540    0.4950 c3        1 MOL     -0.487630
     81 C28        -3.0470   -5.0270   -0.8990 c3        1 MOL     -0.027283
     82 C29        -2.5770   -6.0000   -1.9450 c         1 MOL      0.589897
     83 N8         -2.6920   -5.5350   -3.1800 n         1 MOL     -0.759551
     84 O15        -2.1400   -7.1390   -1.7000 o         1 MOL     -0.601962
     85 H33        -4.6080   -3.1190    0.5010 hn        1 MOL     -0.014348
     86 H34        -3.5800   -4.9750    2.5480 h1        1 MOL      0.044129
     87 H35        -4.0600   -6.4480    0.4430 hc        1 MOL      0.165793
     88 H36        -2.3350   -6.2850    0.8170 hc        1 MOL      0.165793
     89 H37        -2.3090   -4.2320   -0.9600 hc        1 MOL      0.104687
     90 H38        -3.9820   -4.5870   -1.2420 hc        1 MOL      0.104687
     91 H39        -2.9580   -4.5580   -3.2510 hn        1 MOL      0.345554
     92 H40        -2.4150   -6.0930   -3.9730 hn        1 MOL      0.345554
     93 N9         -1.1680   -4.1490    1.8730 n         1 MOL     -0.293023
     94 C30         0.0470   -3.2530    2.0370 c3        1 MOL     -0.032528
     95 C31         0.9720   -3.3930    0.7820 c         1 MOL      0.326518
     96 O16         1.3160   -4.5350    0.3530 o         1 MOL     -0.550563
     97 C32         0.7860   -3.6180    3.3430 c3        1 MOL      0.380337
     98 C33         1.9810   -2.8560    3.6720 c3        1 MOL     -0.417675
     99 C34        -0.1510   -3.4420    4.5810 c3        1 MOL     -0.417675
    100 H41        -0.9830   -5.1390    1.9930 hn        1 MOL      0.258925
    101 H42        -0.2820   -2.2370    2.2370 h1        1 MOL      0.075789
    102 H43         1.0270   -4.6800    3.2600 hc        1 MOL     -0.075580
    103 H44         2.3710   -3.2510    4.6090 hc        1 MOL      0.091962
    104 H45         2.6540   -3.0270    2.8340 hc        1 MOL      0.091962
    105 H46         1.7090   -1.7970    3.6630 hc        1 MOL      0.091962
    106 H47        -1.0510   -4.0120    4.3540 hc        1 MOL      0.091962
    107 H48         0.3140   -3.7020    5.5350 hc        1 MOL      0.091962
    108 H49        -0.3260   -2.3690    4.5800 hc        1 MOL      0.091962
    109 N10         1.5100   -2.2970    0.2830 n         1 MOL     -0.052237
    110 C35         2.5760   -2.2160   -0.7290 c3        1 MOL      0.039432
    111 C36         3.9530   -1.9920   -0.0150 c         1 MOL      0.226786
    112 O17         4.0250   -1.4520    1.1030 o         1 MOL     -0.187657
    113 C37         2.2620   -1.1190   -1.7850 c3        1 MOL     -0.232794
    114 C38         3.1920   -1.1640   -3.0150 c         1 MOL      0.819535
    115 N11         2.8050   -1.9760   -3.8960 n         1 MOL     -0.774644
    116 O18         4.1860   -0.5230   -3.1590 o         1 MOL     -0.593207
    117 H50         1.0890   -1.4390    0.6150 hn        1 MOL      0.118750
    118 H51         2.6070   -3.1790   -1.2500 h1        1 MOL      0.035603
    119 H52         2.4330   -0.1680   -1.2840 hc        1 MOL      0.094821
    120 H53         1.2560   -1.1260   -2.1970 hc        1 MOL      0.094821
    121 H54         1.9710   -2.5220   -3.6940 hn        1 MOL      0.357441
    122 H55         3.3050   -2.0180   -4.7730 hn        1 MOL      0.357441
    123 N12         5.0030   -2.2700   -0.7510 n         1 MOL     -0.302750
    124 C39         6.3940   -1.8520   -0.4730 c3        1 MOL      0.033238
    125 C40         6.5170   -0.4050   -0.1080 c         1 MOL      0.616262
    126 O19         7.1530   -0.0750    0.8900 o         1 MOL     -0.595359
    127 C41         7.3140   -2.2590   -1.6110 c3        1 MOL     -0.101658
    128 C42         8.8020   -2.1220   -1.3170 ca        1 MOL      0.074931
    129 C43         9.6220   -3.3140   -1.1680 ca        1 MOL     -0.232245
    130 C44         9.4210   -0.8730   -1.3090 ca        1 MOL     -0.232245
    131 C45        10.9590   -3.1770   -0.8630 ca        1 MOL     -0.098935
    132 C46        10.8270   -0.7980   -1.0330 ca        1 MOL     -0.098935
    133 C47        11.6130   -1.9940   -0.9980 ca        1 MOL      0.163983
    134 O20        12.9330   -2.0600   -0.6610 oh        1 MOL     -0.508498
    135 H56         4.7730   -2.6950   -1.6350 hn        1 MOL      0.213279
    136 H57         6.6550   -2.3430    0.4650 h1        1 MOL      0.049053
    137 H58         7.1300   -1.6280   -2.4770 hc        1 MOL      0.072616
    138 H59         7.1170   -3.2630   -1.9830 hc        1 MOL      0.072616
    139 H60         9.1060   -4.2610   -1.0500 ha        1 MOL      0.135020
    140 H61         8.8210    0.0230   -1.3510 ha        1 MOL      0.135020
    141 H62        11.4440   -4.0890   -0.5670 ha        1 MOL      0.106862
    142 H63        11.3220    0.1550   -0.8700 ha        1 MOL      0.106862
    143 H64        13.2840   -1.1800   -0.5100 ho        1 MOL      0.382692
    144 N13         5.8020    0.5060   -0.8120 n         1 MOL     -0.202961
    145 C48         5.7590    1.9480   -0.5020 c3        1 MOL     -0.057115
    146 C49         5.1320    2.2640    0.7970 c         1 MOL      0.339148
    147 O21         5.2130    3.3460    1.2830 o         1 MOL     -0.526532
    148 C50         5.0020    2.5040   -1.6970 c3        1 MOL      0.134270
    149 C51         5.8500    2.4870   -2.9950 c3        1 MOL     -0.452658
    150 C52         5.0180    3.3470   -3.9920 c         1 MOL      0.760286
    151 O22         5.0800    4.5980   -4.0690 o         1 MOL     -0.734653
    152 O23         4.2570    2.7700   -4.7900 o         1 MOL     -0.734653
    153 H65         5.3660    0.2190   -1.6770 hn        1 MOL      0.054395
    154 H66         6.7560    2.3720   -0.3960 h1        1 MOL      0.088901
    155 H67         4.7930    3.5660   -1.5320 hc        1 MOL      0.042737
    156 H68         4.0830    1.9240   -1.8220 hc        1 MOL      0.042737
    157 H69         5.9020    1.4440   -3.3240 hc        1 MOL      0.087306
    158 H70         6.8410    2.9230   -2.8840 hc        1 MOL      0.087306
    159 N14         4.3160    1.3510    1.3400 n         1 MOL     -0.121712
    160 C53         3.5180    1.6120    2.5940 c3        1 MOL      0.051390
    161 C54         4.1810    0.9140    3.7590 c         1 MOL      0.434522
    162 O24         4.2060    1.3910    4.8650 o         1 MOL     -0.588615
    163 C55         2.1080    1.0530    2.3420 c3        1 MOL     -0.071668
    164 C56         1.3200    1.7990    1.2470 c3        1 MOL     -0.115708
    165 C57         0.0150    1.1550    0.7610 c         1 MOL      0.755331
    166 O25        -0.8360    1.8430    0.2670 o         1 MOL     -0.736805
    167 O26        -0.2610   -0.0520    1.0290 o         1 MOL     -0.736805
    168 H71         4.0050    0.5360    0.8240 hn        1 MOL      0.165106
    169 H72         3.5040    2.6750    2.8420 h1        1 MOL      0.064069
    170 H73         1.6600    1.1250    3.3340 hc        1 MOL      0.058886
    171 H74         2.0790   -0.0020    2.0620 hc        1 MOL      0.058886
    172 H75         2.0110    1.9580    0.4210 hc        1 MOL      0.006596
    173 H76         1.0150    2.7110    1.7610 hc        1 MOL      0.006596
    174 N15         4.6890   -0.2880    3.5570 n         1 MOL     -0.035373
    175 C58         5.5210   -1.1770    4.5010 c3        1 MOL     -0.205223
    176 H77         6.1190   -1.8720    3.9110 h1        1 MOL      0.086009
    177 H78         6.1810   -0.5520    5.1030 h1        1 MOL      0.086009
    178 H79         4.8540   -1.7380    5.1560 h1        1 MOL      0.086009
    179 H80         4.4670   -0.6170    2.6220 hn        1 MOL     -0.088299
    180 Ca1        -2.8250   -0.1380    0.4190 Ca        1 MOL      1.739933
    181 O27        -2.7650   -0.0320    3.4010 oh        1 MOL     -0.839760
    182 H81        -2.9330   -0.7180    4.0510 ho        1 MOL      0.394101
    183 H82        -2.4180    0.7010    3.9140 ho        1 MOL      0.394101
    184 O28        -1.2460   -0.9360   -1.5850 oh        1 MOL     -0.839760
    185 H83        -1.7920   -1.6530   -1.9030 ho        1 MOL      0.394101
    186 H84        -1.2890   -0.2730   -2.2680 ho        1 MOL      0.394101
    187 O29        -5.3660   -0.5550    1.6990 oh        1 MOL     -0.839760
    188 H85        -5.4770   -1.0950    2.4810 ho        1 MOL      0.394101
    189 H86        -5.2930    0.3370    2.0360 ho        1 MOL      0.394101
@<TRIPOS>BOND
     1    1    2 1   
     2    1    4 1   
     3    1    5 1   
     4    1    6 1   
     5    2    3 2   
     6    2    7 1   
     7    7    8 1   
     8    7   15 1   
     9    8    9 1   
    10    8   11 1   
    11    8   16 1   
    12    9   10 2   
    13    9   19 1   
    14   11   12 1   
    15   11   17 1   
    16   11   18 1   
    17   12   13 1   
    18   12   14 1   
    19   19   20 1   
    20   19   27 1   
    21   20   21 1   
    22   20   23 1   
    23   20   28 1   
    24   21   22 2   
    25   21   38 1   
    26   23   24 1   
    27   23   25 1   
    28   23   29 1   
    29   24   26 1   
    30   24   30 1   
    31   24   31 1   
    32   25   32 1   
    33   25   33 1   
    34   25   34 1   
    35   26   35 1   
    36   26   36 1   
    37   26   37 1   
    38   38   39 1   
    39   38   46 1   
    40   39   40 1   
    41   39   42 1   
    42   39   47 1   
    43   40   41 2   
    44   40   50 1   
    45   42   43 1   
    46   42   48 1   
    47   42   49 1   
    48   43   44 1   
    49   43   45 1   
    50   50   51 1   
    51   50   54 1   
    52   51   52 1   
    53   51   55 1   
    54   51   56 1   
    55   52   53 2   
    56   52   57 1   
    57   57   58 1   
    58   57   65 1   
    59   58   59 1   
    60   58   61 1   
    61   58   66 1   
    62   59   60 2   
    63   59   69 1   
    64   61   62 1   
    65   61   67 1   
    66   61   68 1   
    67   62   63 1   
    68   62   64 1   
    69   69   70 1   
    70   69   73 1   
    71   70   71 1   
    72   70   74 1   
    73   70   75 1   
    74   71   72 2   
    75   71   76 1   
    76   76   77 1   
    77   76   85 1   
    78   77   78 1   
    79   77   80 1   
    80   77   86 1   
    81   78   79 2   
    82   78   93 1   
    83   80   81 1   
    84   80   87 1   
    85   80   88 1   
    86   81   82 1   
    87   81   89 1   
    88   81   90 1   
    89   82   83 1   
    90   82   84 2   
    91   83   91 1   
    92   83   92 1   
    93   93   94 1   
    94   93  100 1   
    95   94   95 1   
    96   94   97 1   
    97   94  101 1   
    98   95   96 2   
    99   95  109 1   
   100   97   98 1   
   101   97   99 1   
   102   97  102 1   
   103   98  103 1   
   104   98  104 1   
   105   98  105 1   
   106   99  106 1   
   107   99  107 1   
   108   99  108 1   
   109  109  110 1   
   110  109  117 1   
   111  110  111 1   
   112  110  113 1   
   113  110  118 1   
   114  111  112 2   
   115  111  123 1   
   116  113  114 1   
   117  113  119 1   
   118  113  120 1   
   119  114  115 1   
   120  114  116 2   
   121  115  121 1   
   122  115  122 1   
   123  123  124 1   
   124  123  135 1   
   125  124  125 1   
   126  124  127 1   
   127  124  136 1   
   128  125  126 2   
   129  125  144 1   
   130  127  128 1   
   131  127  137 1   
   132  127  138 1   
   133  128  129 ar  
   134  128  130 ar  
   135  129  131 ar  
   136  129  139 1   
   137  130  132 ar  
   138  130  140 1   
   139  131  133 ar  
   140  131  141 1   
   141  132  133 ar  
   142  132  142 1   
   143  133  134 1   
   144  134  143 1   
   145  144  145 1   
   146  144  153 1   
   147  145  146 1   
   148  145  148 1   
   149  145  154 1   
   150  146  147 2   
   151  146  159 1   
   152  148  149 1   
   153  148  155 1   
   154  148  156 1   
   155  149  150 1   
   156  149  157 1   
   157  149  158 1   
   158  150  151 1   
   159  150  152 1   
   160  159  160 1   
   161  159  168 1   
   162  160  161 1   
   163  160  163 1   
   164  160  169 1   
   165  161  162 2   
   166  161  174 1   
   167  163  164 1   
   168  163  170 1   
   169  163  171 1   
   170  164  165 1   
   171  164  172 1   
   172  164  173 1   
   173  165  166 1   
   174  165  167 1   
   175  174  175 1   
   176  174  179 1   
   177  175  176 1   
   178  175  177 1   
   179  175  178 1   
   180  181  182 1   
   181  181  183 1   
   182  184  185 1   
   183  184  186 1   
   184  187  188 1   
   185  187  189 1   
@<TRIPOS>SUBSTRUCTURE
     1 MOL         1 TEMP              0 ****  ****    0 ROOT
