@<TRIPOS>MOLECULE
MOL
  189   185     1     0     0
SMALL
resp


@<TRIPOS>ATOM
      1 C1         -0.5550    3.1780    5.4240 c3        1 MOL     -0.396196
      2 C2         -0.8850    2.8400    3.9510 c         1 MOL      0.683428
      3 O1          0.0080    3.0740    3.1390 o         1 MOL     -0.590019
      4 H1         -1.4700    3.4590    5.9450 hc        1 MOL      0.096703
      5 H2         -0.1150    2.3060    5.9070 hc        1 MOL      0.096703
      6 H3          0.1510    4.0070    5.4570 hc        1 MOL      0.096703
      7 N1         -2.0470    2.2120    3.7160 n         1 MOL     -0.696684
      8 C3         -2.6580    1.8550    2.4310 c3        1 MOL      0.455031
      9 C4         -3.2580    3.1270    1.8430 c         1 MOL      0.241124
     10 O2         -4.4090    3.5810    2.0590 o         1 MOL     -0.491006
     11 C5         -3.7300    0.8300    2.6660 c3        1 MOL     -0.457470
     12 C6         -4.3390    0.2710    1.3940 c         1 MOL      0.795562
     13 O3         -3.7130    0.4770    0.3150 o         1 MOL     -0.659824
     14 O4         -5.3820   -0.3720    1.5180 o         1 MOL     -0.659824
     15 H4         -2.5170    1.9120    4.5590 hn        1 MOL      0.343101
     16 H5         -1.9680    1.5150    1.6620 h1        1 MOL     -0.020272
     17 H6         -4.5360    1.2880    3.2430 hc        1 MOL      0.096057
     18 H7         -3.3580   -0.1080    3.0820 hc        1 MOL      0.096057
     19 N2         -2.3710    3.7400    0.9990 n         1 MOL      0.005760
     20 C7         -2.6730    5.0340    0.3810 c3        1 MOL     -0.058232
     21 C8         -3.6820    4.9760   -0.7340 c         1 MOL      0.598875
     22 O5         -4.1260    5.9920   -1.1780 o         1 MOL     -0.597724
     23 C9         -1.3790    5.6420   -0.1490 c3        1 MOL      0.050295
     24 C10        -0.2580    5.8440    0.9270 c3        1 MOL      0.023551
     25 C11        -0.9580    6.4480    2.1360 c3        1 MOL     -0.284143
     26 C12         0.0590    6.9860    3.1310 c3        1 MOL      0.194105
     27 N3         -0.6050    7.5410    4.3120 n4        1 MOL     -0.549323
     28 H8         -1.4430    3.3530    0.8970 hn        1 MOL      0.217042
     29 H9         -2.9740    5.8030    1.0860 h1        1 MOL      0.006867
     30 H10        -1.5270    6.6280   -0.5790 hc        1 MOL      0.004696
     31 H11        -1.0620    5.0330   -0.9990 hc        1 MOL      0.004696
     32 H12         0.4650    6.5460    0.5210 hc        1 MOL      0.017815
     33 H13         0.3130    4.9330    1.1120 hc        1 MOL      0.017815
     34 H14        -1.5180    5.6480    2.6230 hc        1 MOL      0.101064
     35 H15        -1.5340    7.3320    1.8710 hc        1 MOL      0.101064
     36 H16         0.8100    7.6830    2.7470 hx        1 MOL      0.053965
     37 H17         0.7720    6.2180    3.4390 hx        1 MOL      0.053965
     38 H18        -1.4430    6.9850    4.4100 hn        1 MOL      0.372893
     39 H19        -0.0180    7.4790    5.1310 hn        1 MOL      0.372893
     40 H20        -0.7500    8.5190    4.0900 hn        1 MOL      0.372893
     41 N4         -4.0630    3.8310   -1.1960 n         1 MOL     -0.277790
     42 C13        -4.8010    3.5650   -2.4440 c3        1 MOL      0.024717
     43 C14        -5.8600    2.4400   -2.4050 c         1 MOL      0.415770
     44 O6         -6.4610    2.2140   -3.4420 o         1 MOL     -0.511327
     45 C15        -3.7840    3.4040   -3.6340 c3        1 MOL     -0.227028
     46 C16        -2.8190    2.2190   -3.4560 c         1 MOL      0.870655
     47 O7         -2.9370    1.2550   -2.6430 o         1 MOL     -0.727214
     48 O8         -1.8470    2.1580   -4.2610 o         1 MOL     -0.727214
     49 H21        -3.7100    3.0550   -0.6690 hn        1 MOL     -0.062694
     50 H22        -5.3200    4.5010   -2.6550 h1        1 MOL      0.102260
     51 H23        -3.2200    4.3280   -3.7370 hc        1 MOL      0.067151
     52 H24        -4.3450    3.3140   -4.5580 hc        1 MOL      0.067151
     53 N5         -6.1280    1.8220   -1.2820 n         1 MOL     -0.186766
     54 C17        -7.3860    1.2150   -0.8990 c3        1 MOL     -0.265674
     55 C18        -7.5840   -0.2210   -1.4410 c         1 MOL      0.571696
     56 O9         -8.7420   -0.6930   -1.5200 o         1 MOL     -0.588578
     57 H25        -5.4940    2.0890   -0.5410 hn        1 MOL      0.265260
     58 H26        -8.2380    1.8120   -1.2400 h1        1 MOL      0.127728
     59 H27        -7.4760    1.0780    0.1850 h1        1 MOL      0.127728
     60 N6         -6.4870   -0.9530   -1.7950 n         1 MOL     -0.272339
     61 C19        -6.4360   -2.3230   -2.3000 c3        1 MOL     -0.047350
     62 C20        -6.4220   -3.3660   -1.1650 c         1 MOL      0.428087
     63 O10        -6.3520   -4.5350   -1.4390 o         1 MOL     -0.538567
     64 C21        -5.1480   -2.4610   -3.1680 c3        1 MOL     -0.164531
     65 C22        -3.8410   -2.1020   -2.5830 c         1 MOL      0.818327
     66 O11        -3.0500   -1.5580   -3.3190 o         1 MOL     -0.719864
     67 O12        -3.5860   -2.3700   -1.4230 o         1 MOL     -0.719864
     68 H28        -5.6150   -0.4820   -1.6070 hn        1 MOL      0.172149
     69 H29        -7.2660   -2.5370   -2.9680 h1        1 MOL      0.122653
     70 H30        -5.3620   -2.0160   -4.1350 hc        1 MOL      0.049130
     71 H31        -5.0810   -3.5310   -3.3590 hc        1 MOL      0.049130
     72 N7         -6.3390   -2.9180    0.1280 n         1 MOL     -0.211340
     73 C23        -6.3970   -3.7690    1.3020 c3        1 MOL     -0.238290
     74 C24        -5.0300   -4.1940    1.8140 c         1 MOL      0.563653
     75 O13        -5.0800   -5.0580    2.6680 o         1 MOL     -0.578897
     76 H32        -6.3150   -1.9030    0.1800 hn        1 MOL      0.227379
     77 H33        -7.0640   -4.6100    1.1260 h1        1 MOL      0.126888
     78 H34        -6.9150   -3.1660    2.0510 h1        1 MOL      0.126888
     79 N8         -3.9850   -3.8440    1.0930 n         1 MOL     -0.087716
     80 C25        -2.6090   -4.3150    1.4550 c3        1 MOL     -0.157059
     81 C26        -1.4800   -3.2320    1.4820 c         1 MOL      0.615459
     82 O14        -1.6120   -2.0600    1.0450 o         1 MOL     -0.661968
     83 C27        -2.1900   -5.5880    0.5370 c3        1 MOL      0.362742
     84 C28        -3.2460   -6.7100    0.6180 c3        1 MOL     -0.461162
     85 O15        -2.2340   -5.3280   -0.8750 oh        1 MOL     -0.634436
     86 H35        -4.0190   -3.3550    0.2080 hn        1 MOL     -0.011675
     87 H36        -2.6770   -4.7010    2.4750 h1        1 MOL      0.056842
     88 H37        -1.2550   -6.0430    0.8620 h1        1 MOL      0.051062
     89 H38        -3.1380   -5.1150   -1.1370 ho        1 MOL      0.452515
     90 H39        -4.0970   -6.5720   -0.0490 hc        1 MOL      0.122580
     91 H40        -2.8460   -7.6580    0.2660 hc        1 MOL      0.122580
     92 H41        -3.6440   -6.8450    1.6230 hc        1 MOL      0.122580
     93 N9         -0.3030   -3.7280    1.8550 n         1 MOL     -0.331351
     94 C29         1.0020   -3.0560    1.8700 c3        1 MOL      0.181385
     95 C30         1.7890   -3.6060    0.6580 c         1 MOL      0.202977
     96 O16         1.8070   -4.7870    0.3210 o         1 MOL     -0.520694
     97 C31         1.6350   -3.2350    3.2840 c3        1 MOL      0.097966
     98 C32         0.6800   -2.5370    4.3530 c3        1 MOL     -0.140039
     99 C33         3.0660   -2.6050    3.3960 c3        1 MOL     -0.251933
    100 C34         0.1540   -1.0800    4.1190 c3        1 MOL     -0.131142
    101 H42        -0.3190   -4.7020    2.1220 hn        1 MOL      0.202042
    102 H43         0.8730   -1.9880    1.6920 h1        1 MOL      0.102610
    103 H44         1.7360   -4.2790    3.5910 hc        1 MOL      0.007248
    104 H45         1.3020   -2.5170    5.2530 hc        1 MOL      0.029407
    105 H46        -0.1770   -3.2060    4.4360 hc        1 MOL      0.029407
    106 H47         3.7850   -2.9490    2.6490 hc        1 MOL      0.043079
    107 H48         3.0230   -1.5250    3.3880 hc        1 MOL      0.043079
    108 H49         3.3500   -2.9040    4.4060 hc        1 MOL      0.043079
    109 H50        -0.7540   -1.0800    3.5110 hc        1 MOL      0.065638
    110 H51        -0.1140   -0.7040    5.1100 hc        1 MOL      0.065638
    111 H52         0.9520   -0.5480    3.6130 hc        1 MOL      0.065638
    112 N10         2.6120   -2.7080    0.0880 n         1 MOL      0.054025
    113 C35         3.7250   -2.9040   -0.8940 c3        1 MOL      0.007526
    114 C36         5.1140   -2.6640   -0.2240 c         1 MOL      0.321013
    115 O17         5.2620   -1.9910    0.7830 o         1 MOL     -0.354534
    116 C37         3.4910   -1.9930   -2.1210 c3        1 MOL      0.060578
    117 C38         2.1660   -2.3080   -2.7950 c3        1 MOL     -0.155235
    118 O18         3.5830   -0.5780   -1.7620 oh        1 MOL     -0.433775
    119 H53         2.4590   -1.7770    0.4280 hn        1 MOL      0.218393
    120 H54         3.6880   -3.9190   -1.2820 h1        1 MOL      0.065812
    121 H55         4.2860   -2.2420   -2.8290 h1        1 MOL      0.017496
    122 H56         3.2970   -0.0010   -2.4800 ho        1 MOL      0.378732
    123 H57         2.0880   -3.3010   -3.2350 hc        1 MOL      0.059664
    124 H58         1.4710   -2.0370   -2.0010 hc        1 MOL      0.059664
    125 H59         2.1240   -1.5730   -3.6100 hc        1 MOL      0.059664
    126 N11         6.1680   -3.1480   -0.8330 n         1 MOL     -0.349084
    127 C39         7.5790   -2.7070   -0.5040 c3        1 MOL     -0.126946
    128 C40         7.8530   -1.2120   -0.4110 c         1 MOL      0.416611
    129 O19         8.8560   -0.8110    0.1850 o         1 MOL     -0.519612
    130 C41         8.5900   -3.4270   -1.4720 c3        1 MOL      0.224764
    131 C42         8.7740   -4.9580   -1.1140 c3        1 MOL     -0.251005
    132 O20         8.1450   -3.3670   -2.8010 oh        1 MOL     -0.623795
    133 H60         5.9940   -3.8080   -1.5780 hn        1 MOL      0.318481
    134 H61         7.8140   -3.0160    0.5180 h1        1 MOL      0.143239
    135 H62         9.5530   -2.9610   -1.2890 h1        1 MOL      0.052414
    136 H63         8.8630   -3.6090   -3.3900 ho        1 MOL      0.421131
    137 H64         7.8090   -5.4570   -1.1040 hc        1 MOL      0.074001
    138 H65         9.3300   -5.4660   -1.9070 hc        1 MOL      0.074001
    139 H66         9.3160   -5.1450   -0.1880 hc        1 MOL      0.074001
    140 N12         7.0130   -0.4080   -0.9910 n         1 MOL     -0.144393
    141 C43         7.1260    1.0590   -0.9460 c3        1 MOL     -0.020236
    142 C44         6.2980    1.6940    0.2900 c         1 MOL      0.361436
    143 O21         6.8660    2.5000    1.0190 o         1 MOL     -0.488642
    144 C45         6.7250    1.5700   -2.3070 c3        1 MOL     -0.058951
    145 C46         6.8990    3.1150   -2.3890 c3        1 MOL      0.038535
    146 C47         6.7570    3.5630   -3.8700 c3        1 MOL     -0.078786
    147 C48         6.8080    5.0470   -4.0440 c3        1 MOL      0.177062
    148 N13         7.0190    5.4640   -5.5140 n4        1 MOL     -0.409246
    149 H67         6.3780   -0.8680   -1.6320 hn        1 MOL      0.181720
    150 H68         8.1460    1.3660   -0.7250 h1        1 MOL      0.097533
    151 H69         5.6880    1.3090   -2.5180 hc        1 MOL      0.009183
    152 H70         7.3190    1.1420   -3.1180 hc        1 MOL      0.009183
    153 H71         7.9030    3.3440   -2.0490 hc        1 MOL      0.026070
    154 H72         6.2550    3.6050   -1.6560 hc        1 MOL      0.026070
    155 H73         5.7920    3.1830   -4.2000 hc        1 MOL      0.045726
    156 H74         7.6100    3.1450   -4.4070 hc        1 MOL      0.045726
    157 H75         7.6090    5.4680   -3.4440 hx        1 MOL      0.047902
    158 H76         5.8830    5.5030   -3.6810 hx        1 MOL      0.047902
    159 H77         7.9680    5.3400   -5.8470 hn        1 MOL      0.309625
    160 H78         6.3310    5.0680   -6.1330 hn        1 MOL      0.309625
    161 H79         6.7650    6.4190   -5.7070 hn        1 MOL      0.309625
    162 N14         5.0410    1.1480    0.4640 n         1 MOL     -0.070892
    163 C49         4.1870    1.5010    1.6180 c3        1 MOL     -0.222278
    164 C50         4.7730    0.8970    2.9400 c         1 MOL      0.497213
    165 O22         4.5450    1.4460    3.9820 o         1 MOL     -0.551229
    166 C51         2.7670    0.8360    1.4190 c3        1 MOL      0.063013
    167 C52         1.9070    1.5210    0.3190 c3        1 MOL     -0.254185
    168 C53         0.6070    0.8230    0.1420 c         1 MOL      0.700269
    169 O23         0.5500   -0.4080    0.0210 o         1 MOL     -0.741860
    170 O24        -0.3950    1.5680    0.0030 o         1 MOL     -0.741860
    171 H80         4.6390    0.5370   -0.2260 hn        1 MOL      0.024252
    172 H81         4.1430    2.5650    1.8550 h1        1 MOL      0.124799
    173 H82         2.3210    0.8330    2.4200 hc        1 MOL      0.072236
    174 H83         2.9080   -0.2240    1.1840 hc        1 MOL      0.072236
    175 H84         2.4120    1.7110   -0.6300 hc        1 MOL      0.063432
    176 H85         1.7730    2.5490    0.6660 hc        1 MOL      0.063432
    177 N15         5.6050   -0.2030    2.9710 n         1 MOL     -0.123987
    178 C54         6.2680   -0.6550    4.1680 c3        1 MOL     -0.288248
    179 H86         7.3440   -0.5140    4.0620 h1        1 MOL      0.104511
    180 H87         5.9090   -0.0810    5.0220 h1        1 MOL      0.104511
    181 H88         6.0550   -1.7120    4.3240 h1        1 MOL      0.104511
    182 H89         5.7780   -0.6990    2.1070 hn        1 MOL      0.173675
    183 Ca1        -1.8490   -0.5310   -1.1140 Ca        1 MOL      1.777639
    184 O25        -0.7580   -3.1690   -1.9090 oh        1 MOL     -0.883584
    185 H90        -1.4640   -3.7550   -1.6080 ho        1 MOL      0.405157
    186 H91        -0.0160   -3.7510   -2.0740 ho        1 MOL      0.405157
    187 O26        -0.3260    0.3370   -3.0510 oh        1 MOL     -0.883584
    188 H92        -0.8900    0.9110   -3.5630 ho        1 MOL      0.405157
    189 H93         0.3470    0.0470   -3.6670 ho        1 MOL      0.405157
@<TRIPOS>BOND
     1    1    2 1   
     2    1    4 1   
     3    1    5 1   
     4    1    6 1   
     5    2    3 2   
     6    2    7 1   
     7    7    8 1   
     8    7   15 1   
     9    8    9 1   
    10    8   11 1   
    11    8   16 1   
    12    9   10 2   
    13    9   19 1   
    14   11   12 1   
    15   11   17 1   
    16   11   18 1   
    17   12   13 1   
    18   12   14 1   
    19   19   20 1   
    20   19   28 1   
    21   20   21 1   
    22   20   23 1   
    23   20   29 1   
    24   21   22 2   
    25   21   41 1   
    26   23   24 1   
    27   23   30 1   
    28   23   31 1   
    29   24   25 1   
    30   24   32 1   
    31   24   33 1   
    32   25   26 1   
    33   25   34 1   
    34   25   35 1   
    35   26   27 1   
    36   26   36 1   
    37   26   37 1   
    38   27   38 1   
    39   27   39 1   
    40   27   40 1   
    41   41   42 1   
    42   41   49 1   
    43   42   43 1   
    44   42   45 1   
    45   42   50 1   
    46   43   44 2   
    47   43   53 1   
    48   45   46 1   
    49   45   51 1   
    50   45   52 1   
    51   46   47 1   
    52   46   48 1   
    53   53   54 1   
    54   53   57 1   
    55   54   55 1   
    56   54   58 1   
    57   54   59 1   
    58   55   56 2   
    59   55   60 1   
    60   60   61 1   
    61   60   68 1   
    62   61   62 1   
    63   61   64 1   
    64   61   69 1   
    65   62   63 2   
    66   62   72 1   
    67   64   65 1   
    68   64   70 1   
    69   64   71 1   
    70   65   66 1   
    71   65   67 1   
    72   72   73 1   
    73   72   76 1   
    74   73   74 1   
    75   73   77 1   
    76   73   78 1   
    77   74   75 2   
    78   74   79 1   
    79   79   80 1   
    80   79   86 1   
    81   80   81 1   
    82   80   83 1   
    83   80   87 1   
    84   81   82 2   
    85   81   93 1   
    86   83   84 1   
    87   83   85 1   
    88   83   88 1   
    89   84   90 1   
    90   84   91 1   
    91   84   92 1   
    92   85   89 1   
    93   93   94 1   
    94   93  101 1   
    95   94   95 1   
    96   94   97 1   
    97   94  102 1   
    98   95   96 2   
    99   95  112 1   
   100   97   98 1   
   101   97   99 1   
   102   97  103 1   
   103   98  100 1   
   104   98  104 1   
   105   98  105 1   
   106   99  106 1   
   107   99  107 1   
   108   99  108 1   
   109  100  109 1   
   110  100  110 1   
   111  100  111 1   
   112  112  113 1   
   113  112  119 1   
   114  113  114 1   
   115  113  116 1   
   116  113  120 1   
   117  114  115 2   
   118  114  126 1   
   119  116  117 1   
   120  116  118 1   
   121  116  121 1   
   122  117  123 1   
   123  117  124 1   
   124  117  125 1   
   125  118  122 1   
   126  126  127 1   
   127  126  133 1   
   128  127  128 1   
   129  127  130 1   
   130  127  134 1   
   131  128  129 2   
   132  128  140 1   
   133  130  131 1   
   134  130  132 1   
   135  130  135 1   
   136  131  137 1   
   137  131  138 1   
   138  131  139 1   
   139  132  136 1   
   140  140  141 1   
   141  140  149 1   
   142  141  142 1   
   143  141  144 1   
   144  141  150 1   
   145  142  143 2   
   146  142  162 1   
   147  144  145 1   
   148  144  151 1   
   149  144  152 1   
   150  145  146 1   
   151  145  153 1   
   152  145  154 1   
   153  146  147 1   
   154  146  155 1   
   155  146  156 1   
   156  147  148 1   
   157  147  157 1   
   158  147  158 1   
   159  148  159 1   
   160  148  160 1   
   161  148  161 1   
   162  162  163 1   
   163  162  171 1   
   164  163  164 1   
   165  163  166 1   
   166  163  172 1   
   167  164  165 2   
   168  164  177 1   
   169  166  167 1   
   170  166  173 1   
   171  166  174 1   
   172  167  168 1   
   173  167  175 1   
   174  167  176 1   
   175  168  169 1   
   176  168  170 1   
   177  177  178 1   
   178  177  182 1   
   179  178  179 1   
   180  178  180 1   
   181  178  181 1   
   182  184  185 1   
   183  184  186 1   
   184  187  188 1   
   185  187  189 1   
@<TRIPOS>SUBSTRUCTURE
     1 MOL         1 TEMP              0 ****  ****    0 ROOT
