@<TRIPOS>MOLECULE
MOL
  178   175     1     0     0
SMALL
resp


@<TRIPOS>ATOM
      1 C1          1.6020   -3.9600    5.8610 c3        1 MOL     -0.269218
      2 C2          1.5450   -3.2930    4.4880 c         1 MOL      0.774875
      3 O1          0.4390   -3.1470    3.9860 o         1 MOL     -0.566270
      4 H1          1.8290   -5.0190    5.7400 hc        1 MOL      0.057583
      5 H2          2.3790   -3.4880    6.4620 hc        1 MOL      0.057583
      6 H3          0.6390   -3.8490    6.3600 hc        1 MOL      0.057583
      7 N1          2.7350   -3.0510    3.8160 n         1 MOL     -0.726149
      8 C3          2.7340   -2.5960    2.4260 c3        1 MOL      0.361533
      9 C4          2.8540   -3.7670    1.4360 c         1 MOL      0.554693
     10 O2          3.9130   -4.4540    1.4710 o         1 MOL     -0.609120
     11 C5          3.9520   -1.6760    2.4210 c3        1 MOL     -0.088497
     12 C6          4.1400   -0.9440    1.1650 c         1 MOL      0.659049
     13 O3          5.0370   -0.0570    1.0520 o         1 MOL     -0.639158
     14 O4          3.6630   -1.3580    0.0800 o         1 MOL     -0.639158
     15 H4          3.6300   -2.9980    4.2620 hn        1 MOL      0.345158
     16 H5          1.8770   -1.9610    2.2210 h1        1 MOL     -0.173871
     17 H6          4.9140   -2.1730    2.6070 hc        1 MOL      0.001077
     18 H7          3.7130   -0.9610    3.2070 hc        1 MOL      0.001077
     19 N2          1.8990   -3.9240    0.5240 n         1 MOL     -0.571193
     20 C7          1.8940   -4.9200   -0.5680 c3        1 MOL      0.430081
     21 C8          2.7010   -4.6630   -1.8680 c         1 MOL      0.357394
     22 O5          2.5900   -5.4630   -2.8110 o         1 MOL     -0.548296
     23 C9          0.4720   -5.1810   -0.9670 c3        1 MOL     -0.398029
     24 H8          1.2710   -3.1220    0.5250 hn        1 MOL      0.335327
     25 H9          2.3450   -5.8510   -0.2090 h1        1 MOL      0.006318
     26 H10         0.0290   -4.3210   -1.4850 hc        1 MOL      0.094599
     27 H11         0.4610   -6.1500   -1.4670 hc        1 MOL      0.094599
     28 H12         0.0140   -5.3680    0.0150 hc        1 MOL      0.094599
     29 N3          3.5530   -3.6260   -1.9830 n         1 MOL     -0.267307
     30 C10         4.5700   -3.5230   -3.0720 c3        1 MOL      0.081287
     31 C11         5.8850   -2.8920   -2.5640 c         1 MOL      0.267157
     32 O6          6.9520   -2.9010   -3.1790 o         1 MOL     -0.500745
     33 C12         4.1140   -2.8000   -4.3240 c3        1 MOL     -0.169697
     34 C13         3.5640   -1.3220   -3.9800 c         1 MOL      0.864828
     35 O7          3.0850   -0.7110   -4.9450 o         1 MOL     -0.754994
     36 O8          3.5380   -0.7460   -2.8220 o         1 MOL     -0.754994
     37 H13         3.5960   -2.9800   -1.2140 hn        1 MOL      0.089127
     38 H14         4.8160   -4.5070   -3.4890 h1        1 MOL      0.094009
     39 H15         3.4060   -3.4560   -4.8110 hc        1 MOL      0.043018
     40 H16         4.9630   -2.6360   -4.9810 hc        1 MOL      0.043018
     41 N4          5.8630   -2.5200   -1.2560 n         1 MOL     -0.039419
     42 C14         6.9880   -2.0870   -0.4460 c3        1 MOL     -0.355016
     43 C15         7.4290   -0.6300   -0.6550 c         1 MOL      0.600959
     44 O9          8.5750   -0.2200   -0.4420 o         1 MOL     -0.606343
     45 H17         4.9400   -2.6430   -0.8620 hn        1 MOL      0.150107
     46 H18         7.8420   -2.7500   -0.5730 h1        1 MOL      0.149680
     47 H19         6.6000   -2.1800    0.5620 h1        1 MOL      0.149680
     48 N5          6.5450    0.1850   -1.2510 n         1 MOL     -0.201344
     49 C16         6.8440    1.5170   -1.6560 c3        1 MOL     -0.212036
     50 C17         6.9110    2.5230   -0.5260 c         1 MOL      0.519805
     51 O10         7.2400    3.6890   -0.7900 o         1 MOL     -0.601480
     52 C18         5.8640    1.9370   -2.8070 c3        1 MOL     -0.088528
     53 C19         4.5550    2.4210   -2.1790 c         1 MOL      0.671932
     54 N6          4.1380    3.6300   -2.4110 n         1 MOL     -0.800738
     55 O11         3.8410    1.6940   -1.5160 o         1 MOL     -0.671104
     56 H20         5.6010   -0.1540   -1.3560 hn        1 MOL      0.215578
     57 H21         7.7850    1.6060   -2.1900 h1        1 MOL      0.153098
     58 H22         5.5930    1.0940   -3.4520 hc        1 MOL      0.065619
     59 H23         6.3320    2.6510   -3.4920 hc        1 MOL      0.065619
     60 H24         4.6390    4.3600   -2.8860 hn        1 MOL      0.360645
     61 H25         3.5290    3.9210   -1.6560 hn        1 MOL      0.360645
     62 N7          6.6210    2.1690    0.7380 n         1 MOL     -0.181853
     63 C20         6.6640    2.9890    1.9510 c3        1 MOL     -0.059828
     64 C21         5.3460    3.5860    2.3790 c         1 MOL      0.381750
     65 O12         5.3430    4.5700    3.1720 o         1 MOL     -0.566357
     66 H26         6.2480    1.2270    0.7930 hn        1 MOL      0.154588
     67 H27         7.4680    3.7220    1.8790 h1        1 MOL      0.083615
     68 H28         7.0940    2.3350    2.7060 h1        1 MOL      0.083615
     69 N8          4.2960    3.2140    1.6830 n         1 MOL     -0.032799
     70 C22         2.9510    3.7730    1.8130 c3        1 MOL      0.034979
     71 C23         1.9700    2.5970    1.6480 c         1 MOL      0.314661
     72 O13         2.2710    1.5790    0.9860 o         1 MOL     -0.451635
     73 C24         2.5360    4.9420    0.8590 c3        1 MOL      0.309325
     74 C25         3.5710    6.0960    0.9600 c3        1 MOL     -0.345990
     75 O14         2.4600    4.6320   -0.4920 oh        1 MOL     -0.630646
     76 H29         4.3960    2.4010    1.1060 hn        1 MOL      0.099904
     77 H30         2.9580    4.1560    2.8360 h1        1 MOL      0.049631
     78 H31         1.6010    5.3300    1.2470 h1        1 MOL      0.007018
     79 H32         2.2340    5.4770   -0.8950 ho        1 MOL      0.427219
     80 H33         3.1440    6.9980    0.5390 hc        1 MOL      0.092071
     81 H34         3.9120    6.2730    1.9840 hc        1 MOL      0.092071
     82 H35         4.3640    5.8890    0.2370 hc        1 MOL      0.092071
     83 N9          0.8370    2.7970    2.2530 n         1 MOL     -0.286384
     84 C26        -0.3820    1.9400    2.1130 c3        1 MOL     -0.239397
     85 C27        -1.5560    2.8080    1.4220 c         1 MOL      0.546569
     86 O15        -1.8090    3.9970    1.7210 o         1 MOL     -0.566927
     87 C28        -0.7810    1.1870    3.3110 c3        1 MOL      0.161329
     88 C29        -1.3840    1.9740    4.4190 c3        1 MOL     -0.230401
     89 C30         0.3690    0.2780    3.7780 c3        1 MOL      0.189323
     90 C31        -1.7740    1.2040    5.6480 c3        1 MOL     -0.064217
     91 H36         0.7430    3.6760    2.7400 hn        1 MOL      0.256476
     92 H37        -0.1980    1.1970    1.3290 h1        1 MOL      0.116586
     93 H38        -1.5900    0.5200    2.9970 hc        1 MOL     -0.127312
     94 H39        -2.1440    2.5970    3.9420 hc        1 MOL      0.063782
     95 H40        -0.6850    2.7480    4.7270 hc        1 MOL      0.063782
     96 H41         0.1430   -0.5950    4.3870 hc        1 MOL     -0.031630
     97 H42         0.9490   -0.0420    2.9140 hc        1 MOL     -0.031630
     98 H43         1.0060    0.8720    4.4230 hc        1 MOL     -0.031630
     99 H44        -2.6530    0.5990    5.4540 hc        1 MOL      0.023069
    100 H45        -0.9520    0.5200    5.8770 hc        1 MOL      0.023069
    101 H46        -1.9390    1.8940    6.4790 hc        1 MOL      0.023069
    102 N10        -2.2730    2.0700    0.5600 n         1 MOL     -0.266723
    103 C32        -3.4080    2.5530   -0.2600 c3        1 MOL     -0.007000
    104 C33        -4.7160    1.7950    0.1740 c         1 MOL      0.413830
    105 O16        -4.6260    0.8990    1.0270 o         1 MOL     -0.366404
    106 C34        -2.9460    2.4150   -1.7460 c3        1 MOL     -0.085896
    107 C35        -3.7020    3.2940   -2.7490 c         1 MOL      0.638611
    108 O17        -3.0950    3.6390   -3.8090 o         1 MOL     -0.701060
    109 O18        -4.9020    3.4940   -2.5800 o         1 MOL     -0.701060
    110 H47        -1.8810    1.2210    0.1640 hn        1 MOL      0.268668
    111 H48        -3.5340    3.6360   -0.1920 h1        1 MOL      0.075999
    112 H49        -3.1300    1.4200   -2.1480 hc        1 MOL      0.018365
    113 H50        -1.8840    2.6330   -1.7820 hc        1 MOL      0.018365
    114 N11        -5.9060    2.1010   -0.3580 n         1 MOL     -0.530390
    115 C36        -7.1620    1.6340    0.2310 c3        1 MOL      0.434165
    116 C37        -7.2400    0.1180    0.3930 c         1 MOL      0.168574
    117 O19        -7.6920   -0.2970    1.3830 o         1 MOL     -0.509294
    118 C38        -8.4760    2.1610   -0.3630 c3        1 MOL     -0.304243
    119 C39        -9.0740    1.4230   -1.6050 ca        1 MOL      0.262005
    120 C40        -9.8330    0.2660   -1.4170 ca        1 MOL     -0.312159
    121 C41        -8.8950    1.9890   -2.8970 ca        1 MOL     -0.312159
    122 C42       -10.2310   -0.4420   -2.5710 ca        1 MOL      0.020246
    123 C43        -9.3680    1.3020   -4.0130 ca        1 MOL      0.020246
    124 C44       -10.0430    0.0610   -3.8730 ca        1 MOL     -0.284685
    125 H51        -6.0410    2.8300   -1.0450 hn        1 MOL      0.302053
    126 H52        -7.1510    2.0030    1.2520 h1        1 MOL      0.017629
    127 H53        -8.1570    3.1850   -0.5200 hc        1 MOL      0.077866
    128 H54        -9.2330    2.2140    0.4230 hc        1 MOL      0.077866
    129 H55       -10.0730   -0.0620   -0.4190 ha        1 MOL      0.181399
    130 H56        -8.3710    2.9230   -3.0520 ha        1 MOL      0.181399
    131 H57       -10.8360   -1.3280   -2.4790 ha        1 MOL      0.086075
    132 H58        -9.2510    1.7570   -4.9860 ha        1 MOL      0.086075
    133 H59       -10.2420   -0.5160   -4.7730 ha        1 MOL      0.142846
    134 N12        -6.9000   -0.7200   -0.6020 n         1 MOL      0.003472
    135 C45        -6.9020   -2.1920   -0.4220 c3        1 MOL      0.150218
    136 C46        -5.9410   -2.7410    0.6770 c         1 MOL      0.252818
    137 O20        -6.1360   -3.8540    1.2150 o         1 MOL     -0.502955
    138 C47        -6.6280   -2.8560   -1.7240 c3        1 MOL     -0.262733
    139 C48        -6.7730   -1.7340   -2.7770 c3        1 MOL      0.029322
    140 C49        -6.4350   -0.4810   -1.9490 c3        1 MOL     -0.146759
    141 H60        -7.9110   -2.5290   -0.1760 h1        1 MOL      0.040790
    142 H61        -5.5880   -3.1940   -1.8130 hc        1 MOL      0.080129
    143 H62        -7.3600   -3.6270   -1.9460 hc        1 MOL      0.080129
    144 H63        -6.1920   -1.8410   -3.6920 hc        1 MOL      0.033011
    145 H64        -7.7850   -1.6810   -3.1780 hc        1 MOL      0.033011
    146 H65        -5.3580   -0.3150   -1.8980 h1        1 MOL      0.080106
    147 H66        -6.9720    0.3360   -2.4260 h1        1 MOL      0.080106
    148 N13        -4.8340   -1.9920    0.9670 n         1 MOL     -0.074845
    149 C50        -3.7890   -2.3190    1.9850 c3        1 MOL     -0.253327
    150 C51        -4.2420   -1.8310    3.3010 c         1 MOL      0.596170
    151 O21        -4.0150   -2.5330    4.2690 o         1 MOL     -0.591639
    152 C52        -2.4370   -1.6380    1.6620 c3        1 MOL      0.319878
    153 C53        -1.7930   -2.1410    0.3690 c3        1 MOL     -0.182987
    154 C54        -0.6090   -1.2300   -0.0020 c         1 MOL      0.572352
    155 O22        -0.7610   -0.1350   -0.6530 o         1 MOL     -0.629095
    156 O23         0.6250   -1.5590    0.2420 o         1 MOL     -0.629095
    157 H67        -4.8020   -1.0390    0.6080 hn        1 MOL      0.181718
    158 H68        -3.6200   -3.4030    2.0530 h1        1 MOL      0.125244
    159 H69        -1.8020   -1.7940    2.5260 hc        1 MOL     -0.003221
    160 H70        -2.6890   -0.5760    1.5570 hc        1 MOL     -0.003221
    161 H71        -2.5760   -2.1000   -0.3970 hc        1 MOL      0.010885
    162 H72        -1.5430   -3.1830    0.5930 hc        1 MOL      0.010885
    163 N14        -4.8780   -0.6570    3.4060 n         1 MOL     -0.075507
    164 C55        -5.6560   -0.2470    4.6040 c3        1 MOL     -0.374656
    165 H73        -5.7100    0.8410    4.6470 h1        1 MOL      0.122246
    166 H74        -6.6630   -0.6580    4.5420 h1        1 MOL      0.122246
    167 H75        -5.1650   -0.6210    5.5020 h1        1 MOL      0.122246
    168 H76        -5.0080   -0.0050    2.6520 hn        1 MOL      0.115123
    169 Ca1         1.8110    0.1460   -1.2000 Ca        1 MOL      1.763013
    170 O24         0.3420   -2.1400   -2.8630 oh        1 MOL     -0.854452
    171 H77        -0.6060   -2.0380   -2.9240 ho        1 MOL      0.411650
    172 H78         0.5560   -2.8580   -3.4560 ho        1 MOL      0.411650
    173 O25         0.6540    2.5380   -1.4150 oh        1 MOL     -0.854452
    174 H79         0.2340    2.8680   -2.2110 ho        1 MOL      0.411650
    175 H80         1.1950    3.2710   -1.1010 ho        1 MOL      0.411650
    176 O26         0.8870    0.7630   -3.6300 oh        1 MOL     -0.854452
    177 H81         0.2280    1.0140   -4.2710 ho        1 MOL      0.411650
    178 H82         1.5450    0.2800   -4.1380 ho        1 MOL      0.411650
@<TRIPOS>BOND
     1    1    2 1   
     2    1    4 1   
     3    1    5 1   
     4    1    6 1   
     5    2    3 2   
     6    2    7 1   
     7    7    8 1   
     8    7   15 1   
     9    8    9 1   
    10    8   11 1   
    11    8   16 1   
    12    9   10 2   
    13    9   19 1   
    14   11   12 1   
    15   11   17 1   
    16   11   18 1   
    17   12   13 1   
    18   12   14 1   
    19   19   20 1   
    20   19   24 1   
    21   20   21 1   
    22   20   23 1   
    23   20   25 1   
    24   21   22 2   
    25   21   29 1   
    26   23   26 1   
    27   23   27 1   
    28   23   28 1   
    29   29   30 1   
    30   29   37 1   
    31   30   31 1   
    32   30   33 1   
    33   30   38 1   
    34   31   32 2   
    35   31   41 1   
    36   33   34 1   
    37   33   39 1   
    38   33   40 1   
    39   34   35 1   
    40   34   36 1   
    41   41   42 1   
    42   41   45 1   
    43   42   43 1   
    44   42   46 1   
    45   42   47 1   
    46   43   44 2   
    47   43   48 1   
    48   48   49 1   
    49   48   56 1   
    50   49   50 1   
    51   49   52 1   
    52   49   57 1   
    53   50   51 2   
    54   50   62 1   
    55   52   53 1   
    56   52   58 1   
    57   52   59 1   
    58   53   54 1   
    59   53   55 2   
    60   54   60 1   
    61   54   61 1   
    62   62   63 1   
    63   62   66 1   
    64   63   64 1   
    65   63   67 1   
    66   63   68 1   
    67   64   65 2   
    68   64   69 1   
    69   69   70 1   
    70   69   76 1   
    71   70   71 1   
    72   70   73 1   
    73   70   77 1   
    74   71   72 2   
    75   71   83 1   
    76   73   74 1   
    77   73   75 1   
    78   73   78 1   
    79   74   80 1   
    80   74   81 1   
    81   74   82 1   
    82   75   79 1   
    83   83   84 1   
    84   83   91 1   
    85   84   85 1   
    86   84   87 1   
    87   84   92 1   
    88   85   86 2   
    89   85  102 1   
    90   87   88 1   
    91   87   89 1   
    92   87   93 1   
    93   88   90 1   
    94   88   94 1   
    95   88   95 1   
    96   89   96 1   
    97   89   97 1   
    98   89   98 1   
    99   90   99 1   
   100   90  100 1   
   101   90  101 1   
   102  102  103 1   
   103  102  110 1   
   104  103  104 1   
   105  103  106 1   
   106  103  111 1   
   107  104  105 2   
   108  104  114 1   
   109  106  107 1   
   110  106  112 1   
   111  106  113 1   
   112  107  108 1   
   113  107  109 1   
   114  114  115 1   
   115  114  125 1   
   116  115  116 1   
   117  115  118 1   
   118  115  126 1   
   119  116  117 2   
   120  116  134 1   
   121  118  119 1   
   122  118  127 1   
   123  118  128 1   
   124  119  120 ar  
   125  119  121 ar  
   126  120  122 ar  
   127  120  129 1   
   128  121  123 ar  
   129  121  130 1   
   130  122  124 ar  
   131  122  131 1   
   132  123  124 ar  
   133  123  132 1   
   134  124  133 1   
   135  134  135 1   
   136  134  140 1   
   137  135  136 1   
   138  135  138 1   
   139  135  141 1   
   140  136  137 2   
   141  136  148 1   
   142  138  139 1   
   143  138  142 1   
   144  138  143 1   
   145  139  140 1   
   146  139  144 1   
   147  139  145 1   
   148  140  146 1   
   149  140  147 1   
   150  148  149 1   
   151  148  157 1   
   152  149  150 1   
   153  149  152 1   
   154  149  158 1   
   155  150  151 2   
   156  150  163 1   
   157  152  153 1   
   158  152  159 1   
   159  152  160 1   
   160  153  154 1   
   161  153  161 1   
   162  153  162 1   
   163  154  155 1   
   164  154  156 1   
   165  163  164 1   
   166  163  168 1   
   167  164  165 1   
   168  164  166 1   
   169  164  167 1   
   170  170  171 1   
   171  170  172 1   
   172  173  174 1   
   173  173  175 1   
   174  176  177 1   
   175  176  178 1   
@<TRIPOS>SUBSTRUCTURE
     1 MOL         1 TEMP              0 ****  ****    0 ROOT
