@<TRIPOS>MOLECULE
MOL
  189   185     1     0     0
SMALL
resp


@<TRIPOS>ATOM
      1 C1          0.8750   -3.0920    6.4130 c3        1 MOL     -0.470488
      2 C2          0.7920   -2.7580    4.9240 c         1 MOL      0.635068
      3 O1          0.5070   -1.6740    4.5060 o         1 MOL     -0.466572
      4 H1          1.8160   -3.6020    6.6190 hc        1 MOL      0.125275
      5 H2          0.8250   -2.1720    6.9960 hc        1 MOL      0.125275
      6 H3          0.0430   -3.7410    6.6870 hc        1 MOL      0.125275
      7 N1          1.2280   -3.7380    4.1240 n         1 MOL     -0.563354
      8 C3          1.6930   -3.6110    2.7470 c3        1 MOL      0.254123
      9 C4          1.2700   -4.6900    1.7490 c         1 MOL      0.458258
     10 O2          0.9450   -5.8130    2.1980 o         1 MOL     -0.608361
     11 C5          3.2130   -3.3980    2.8680 c3        1 MOL     -0.221920
     12 C6          3.9100   -2.8900    1.6440 c         1 MOL      0.626370
     13 O3          3.3410   -2.4290    0.6670 o         1 MOL     -0.666931
     14 O4          5.1210   -3.0940    1.5690 o         1 MOL     -0.666931
     15 H4          1.2560   -4.6560    4.5390 hn        1 MOL      0.294130
     16 H5          1.2430   -2.6700    2.4080 h1        1 MOL     -0.022455
     17 H6          3.6850   -4.3650    3.0530 hc        1 MOL      0.052467
     18 H7          3.5870   -2.8420    3.7290 hc        1 MOL      0.052467
     19 N2          1.1990   -4.4260    0.4430 n         1 MOL     -0.083685
     20 C7          1.0800   -5.3620   -0.6670 c3        1 MOL     -0.247849
     21 C8          2.2140   -5.1230   -1.7180 c         1 MOL      0.584117
     22 O5          2.5320   -6.0940   -2.4390 o         1 MOL     -0.586994
     23 C9         -0.3930   -5.3780   -1.1680 c3        1 MOL      0.390541
     24 C10        -1.3060   -6.1120   -0.1450 c3        1 MOL     -0.007624
     25 C11        -0.5280   -6.0740   -2.4950 c3        1 MOL     -0.286967
     26 C12        -2.7190   -6.2120   -0.6780 c3        1 MOL     -0.086711
     27 H8          1.2220   -3.4680    0.1420 hn        1 MOL      0.068386
     28 H9          1.2660   -6.3620   -0.3010 h1        1 MOL      0.108797
     29 H10        -0.8260   -4.3840   -1.2560 hc        1 MOL     -0.029061
     30 H11        -1.3580   -5.4370    0.7050 hc        1 MOL     -0.007053
     31 H12        -0.9720   -7.1300    0.0790 hc        1 MOL     -0.007053
     32 H13        -0.4310   -7.1540   -2.3960 hc        1 MOL      0.052010
     33 H14        -1.5170   -5.9630   -2.9260 hc        1 MOL      0.052010
     34 H15         0.1750   -5.6770   -3.2240 hc        1 MOL      0.052010
     35 H16        -3.3590   -6.6120    0.1000 hc        1 MOL      0.012521
     36 H17        -3.0860   -5.2290   -0.9840 hc        1 MOL      0.012521
     37 H18        -2.8800   -6.9010   -1.5160 hc        1 MOL      0.012521
     38 N3          2.9640   -3.9840   -1.8890 n         1 MOL     -0.446771
     39 C13         3.7500   -3.7960   -3.1320 c3        1 MOL      0.031955
     40 C14         5.1850   -3.2050   -2.9720 c         1 MOL      0.310613
     41 O6          5.9470   -3.1090   -3.9370 o         1 MOL     -0.508320
     42 C15         2.9570   -2.8420   -4.0560 c3        1 MOL     -0.127264
     43 C16         2.5120   -1.5640   -3.3950 c         1 MOL      0.697224
     44 O7          2.9520   -1.2010   -2.2940 o         1 MOL     -0.693543
     45 O8          1.5770   -0.8890   -4.0020 o         1 MOL     -0.693543
     46 H19         2.8430   -3.1790   -1.2890 hn        1 MOL      0.306872
     47 H20         3.9150   -4.7260   -3.6730 h1        1 MOL      0.109288
     48 H21         2.0230   -3.3070   -4.3870 hc        1 MOL      0.042879
     49 H22         3.5290   -2.7410   -4.9810 hc        1 MOL      0.042879
     50 N4          5.5550   -2.8870   -1.7560 n         1 MOL     -0.064623
     51 C17         6.9290   -2.6300   -1.4200 c3        1 MOL      0.010230
     52 C18         7.3800   -1.2040   -1.7860 c         1 MOL      0.381765
     53 O9          8.4810   -1.0600   -2.2720 o         1 MOL     -0.544765
     54 H23         4.9360   -2.9500   -0.9610 hn        1 MOL      0.125280
     55 H24         7.5540   -3.4250   -1.8070 h1        1 MOL      0.032713
     56 H25         6.9430   -2.6560   -0.3300 h1        1 MOL      0.032713
     57 N5          6.4500   -0.2010   -1.7200 n         1 MOL     -0.141724
     58 C19         6.7130    1.1300   -2.2930 c3        1 MOL      0.023634
     59 C20         7.2200    2.1700   -1.3210 c         1 MOL      0.451716
     60 O10         7.6750    3.2540   -1.7740 o         1 MOL     -0.540896
     61 C21         5.5820    1.7110   -3.1890 c3        1 MOL     -0.277551
     62 C22         4.3180    1.9920   -2.4690 c         1 MOL      0.776781
     63 O11         4.2050    1.5460   -1.2780 o         1 MOL     -0.682664
     64 O12         3.3790    2.4470   -3.1150 o         1 MOL     -0.682664
     65 H26         5.5440   -0.4730   -1.3800 hn        1 MOL      0.123043
     66 H27         7.5880    0.9510   -2.9130 h1        1 MOL      0.087130
     67 H28         5.4270    1.0030   -4.0150 hc        1 MOL      0.083395
     68 H29         6.0080    2.6120   -3.6280 hc        1 MOL      0.083395
     69 N6          7.0480    1.8990   -0.0370 n         1 MOL     -0.428413
     70 C23         7.2110    2.9210    0.9650 c3        1 MOL      0.026727
     71 C24         5.9590    3.7440    1.3060 c         1 MOL      0.334561
     72 O13         6.1490    4.8760    1.7760 o         1 MOL     -0.566911
     73 H30         6.4840    1.1370    0.3110 hn        1 MOL      0.217660
     74 H31         8.0330    3.5410    0.5970 h1        1 MOL      0.074309
     75 H32         7.6330    2.5450    1.9050 h1        1 MOL      0.074309
     76 N7          4.7270    3.3310    1.0270 n         1 MOL     -0.050021
     77 C25         3.4920    4.0000    1.3360 c3        1 MOL     -0.534726
     78 C26         2.2800    3.0250    1.7360 c         1 MOL      0.917238
     79 O14         2.0590    2.0110    1.0790 o         1 MOL     -0.696956
     80 C27         3.0830    5.0660    0.2210 c3        1 MOL      0.115076
     81 C28         4.0880    6.1870    0.0180 c3        1 MOL     -0.244946
     82 C29         3.6580    7.3070   -0.8330 c         1 MOL      0.609559
     83 N8          3.8540    7.2510   -2.1090 n         1 MOL     -0.748682
     84 O15         3.1050    8.3300   -0.3770 o         1 MOL     -0.606904
     85 H33         4.6020    2.5050    0.4700 hn        1 MOL      0.283584
     86 H34         3.6500    4.5990    2.2310 h1        1 MOL      0.148430
     87 H35         2.1300    5.5320    0.4790 hc        1 MOL      0.038862
     88 H36         3.0200    4.5300   -0.7170 hc        1 MOL      0.038862
     89 H37         4.8830    5.6760   -0.5130 hc        1 MOL      0.123269
     90 H38         4.4980    6.6080    0.9340 hc        1 MOL      0.123269
     91 H39         4.5270    6.6440   -2.5590 hn        1 MOL      0.354687
     92 H40         3.2490    7.8900   -2.6150 hn        1 MOL      0.354687
     93 N9          1.3950    3.4340    2.6190 n         1 MOL     -0.661959
     94 C30         0.0940    2.6990    2.8970 c3        1 MOL     -0.009108
     95 C31        -1.0070    3.3630    2.0980 c         1 MOL      0.569203
     96 O16        -1.1590    4.5840    2.1330 o         1 MOL     -0.575396
     97 C32        -0.1810    2.7250    4.4420 c3        1 MOL      0.095193
     98 C33        -1.6260    2.3550    4.8990 c3        1 MOL     -0.109583
     99 C34         0.7310    1.7060    5.0640 c3        1 MOL     -0.109583
    100 H41         1.4420    4.4130    2.8460 hn        1 MOL      0.331483
    101 H42         0.1800    1.6350    2.6860 h1        1 MOL      0.296112
    102 H43         0.1240    3.6930    4.8420 hc        1 MOL      0.017251
    103 H44        -1.7830    2.3490    5.9840 hc        1 MOL      0.009282
    104 H45        -2.3450    3.0700    4.4960 hc        1 MOL      0.009282
    105 H46        -1.8460    1.3670    4.4960 hc        1 MOL      0.009282
    106 H47         0.5270    0.7100    4.6760 hc        1 MOL      0.009282
    107 H48         1.7380    1.9690    4.7470 hc        1 MOL      0.009282
    108 H49         0.8090    1.8480    6.1450 hc        1 MOL      0.009282
    109 N10        -1.7950    2.5940    1.3220 n         1 MOL     -0.456131
    110 C35        -2.8900    3.0900    0.4750 c3        1 MOL      0.612922
    111 C36        -4.3090    2.6310    1.0290 c         1 MOL      0.096545
    112 O17        -4.3320    1.7780    1.9490 o         1 MOL     -0.378802
    113 C37        -2.6880    2.9590   -1.0110 c3        1 MOL     -0.283512
    114 C38        -2.7350    1.5490   -1.5530 c         1 MOL      0.773630
    115 N11        -1.5820    0.8960   -1.7550 n         1 MOL     -0.820841
    116 O18        -3.7340    1.0080   -1.9550 o         1 MOL     -0.522310
    117 H50        -1.6050    1.5970    1.3420 hn        1 MOL      0.104042
    118 H51        -2.8440    4.1730    0.6410 h1        1 MOL     -0.042884
    119 H52        -1.7390    3.4820   -1.1640 hc        1 MOL      0.037485
    120 H53        -3.5310    3.4300   -1.5000 hc        1 MOL      0.037485
    121 H54        -0.7080    1.3330   -1.4790 hn        1 MOL      0.395902
    122 H55        -1.5530   -0.0740   -2.0130 hn        1 MOL      0.395902
    123 N12        -5.4390    3.1290    0.3960 n         1 MOL     -0.152547
    124 C39        -6.8050    2.6860    0.6450 c3        1 MOL     -0.073283
    125 C40        -7.1590    1.1940    0.4290 c         1 MOL      0.363329
    126 O19        -8.2350    0.7160    0.8750 o         1 MOL     -0.556704
    127 C41        -7.6470    3.6690   -0.1520 c3        1 MOL     -0.048818
    128 C42        -7.6290    3.2470   -1.5640 ca        1 MOL      0.056796
    129 C43        -8.5880    2.3070   -2.0730 ca        1 MOL     -0.237412
    130 C44        -6.6510    3.7180   -2.4470 ca        1 MOL     -0.237412
    131 C45        -8.4610    1.9110   -3.4450 ca        1 MOL     -0.194067
    132 C46        -6.4930    3.3460   -3.7560 ca        1 MOL     -0.194067
    133 C47        -7.4300    2.4210   -4.2510 ca        1 MOL      0.223033
    134 O20        -7.1650    1.9190   -5.5490 oh        1 MOL     -0.489545
    135 H56        -5.2710    3.9050   -0.2210 hn        1 MOL      0.150401
    136 H57        -6.9900    2.8180    1.7080 h1        1 MOL      0.101391
    137 H58        -7.2470    4.6770   -0.0340 hc        1 MOL      0.038778
    138 H59        -8.6470    3.8040    0.2570 hc        1 MOL      0.038778
    139 H60        -9.3380    1.8560   -1.4540 ha        1 MOL      0.162866
    140 H61        -5.9150    4.4500   -2.1510 ha        1 MOL      0.162866
    141 H62        -9.1120    1.1490   -3.8450 ha        1 MOL      0.153877
    142 H63        -5.6990    3.7510   -4.3550 ha        1 MOL      0.153877
    143 H64        -7.7770    1.2420   -5.8540 ho        1 MOL      0.382918
    144 N13        -6.2960    0.3640   -0.1250 n         1 MOL      0.039915
    145 C48        -6.4860   -1.1120   -0.1570 c3        1 MOL     -0.163580
    146 C49        -5.6330   -1.9450    0.8400 c         1 MOL      0.330757
    147 O21        -5.9130   -3.1620    1.0540 o         1 MOL     -0.514296
    148 C50        -6.1830   -1.5570   -1.6140 c3        1 MOL      0.164471
    149 C51        -7.1140   -0.8600   -2.6390 c3        1 MOL     -0.519252
    150 C52        -7.1300   -1.7310   -3.9360 c         1 MOL      0.721474
    151 O22        -6.1660   -1.6810   -4.7290 o         1 MOL     -0.729467
    152 O23        -8.0360   -2.5980   -4.0270 o         1 MOL     -0.729467
    153 H65        -5.4280    0.7490   -0.4610 hn        1 MOL      0.052331
    154 H66        -7.5320   -1.3800    0.0270 h1        1 MOL      0.142092
    155 H67        -6.3990   -2.6200   -1.6440 hc        1 MOL      0.044839
    156 H68        -5.1490   -1.3250   -1.8750 hc        1 MOL      0.044839
    157 H69        -6.6490    0.1040   -2.8640 hc        1 MOL      0.131694
    158 H70        -8.1060   -0.6430   -2.2340 hc        1 MOL      0.131694
    159 N14        -4.6300   -1.3720    1.5090 n         1 MOL     -0.302520
    160 C53        -3.7230   -2.0550    2.4890 c3        1 MOL     -0.041871
    161 C54        -4.0630   -1.8050    4.0030 c         1 MOL      0.492057
    162 O24        -3.7880   -2.6010    4.8610 o         1 MOL     -0.556697
    163 C55        -2.3470   -1.5420    2.2410 c3        1 MOL      0.164620
    164 C56        -1.8260   -1.9770    0.8400 c3        1 MOL     -0.094025
    165 C57        -0.4560   -1.3480    0.4690 c         1 MOL      0.506564
    166 O25        -0.1850   -0.1940    0.8060 o         1 MOL     -0.660610
    167 O26         0.2710   -1.8470   -0.4870 o         1 MOL     -0.660610
    168 H71        -4.3680   -0.4340    1.2380 hn        1 MOL      0.235811
    169 H72        -3.6530   -3.1440    2.4610 h1        1 MOL      0.085930
    170 H73        -1.6560   -1.8850    3.0190 hc        1 MOL     -0.025134
    171 H74        -2.3880   -0.4620    2.3870 hc        1 MOL     -0.025134
    172 H75        -2.5290   -1.6990    0.0540 hc        1 MOL      0.062523
    173 H76        -1.7270   -3.0590    0.9010 hc        1 MOL      0.062523
    174 N15        -4.6980   -0.7040    4.3380 n         1 MOL     -0.188113
    175 C58        -4.7580   -0.2040    5.7130 c3        1 MOL     -0.136315
    176 H77        -3.9800   -0.6820    6.3080 h1        1 MOL      0.072270
    177 H78        -4.6050    0.8750    5.7140 h1        1 MOL      0.072270
    178 H79        -5.7340   -0.4330    6.1410 h1        1 MOL      0.072270
    179 H80        -4.8820   -0.0100    3.6210 hn        1 MOL      0.141612
    180 Ca1         2.3950   -0.1970    0.0010 Ca        1 MOL      1.800056
    181 O27         4.6640    0.4380    1.6210 oh        1 MOL     -0.972813
    182 H81         4.6460    0.6820    2.5390 ho        1 MOL      0.444714
    183 H82         5.2850   -0.2920    1.5820 ho        1 MOL      0.444714
    184 O28         2.1480   -0.4360    2.7110 oh        1 MOL     -0.972813
    185 H83         1.4510   -0.7920    3.2690 ho        1 MOL      0.444714
    186 H84         2.9380   -0.5200    3.2440 ho        1 MOL      0.444714
    187 O29         1.3430    1.0620   -2.1110 oh        1 MOL     -0.972813
    188 H85         2.0080    1.6530   -2.4560 ho        1 MOL      0.444714
    189 H86         1.3040    0.3450   -2.7530 ho        1 MOL      0.444714
@<TRIPOS>BOND
     1    1    2 1   
     2    1    4 1   
     3    1    5 1   
     4    1    6 1   
     5    2    3 2   
     6    2    7 1   
     7    7    8 1   
     8    7   15 1   
     9    8    9 1   
    10    8   11 1   
    11    8   16 1   
    12    9   10 2   
    13    9   19 1   
    14   11   12 1   
    15   11   17 1   
    16   11   18 1   
    17   12   13 1   
    18   12   14 1   
    19   19   20 1   
    20   19   27 1   
    21   20   21 1   
    22   20   23 1   
    23   20   28 1   
    24   21   22 2   
    25   21   38 1   
    26   23   24 1   
    27   23   25 1   
    28   23   29 1   
    29   24   26 1   
    30   24   30 1   
    31   24   31 1   
    32   25   32 1   
    33   25   33 1   
    34   25   34 1   
    35   26   35 1   
    36   26   36 1   
    37   26   37 1   
    38   38   39 1   
    39   38   46 1   
    40   39   40 1   
    41   39   42 1   
    42   39   47 1   
    43   40   41 2   
    44   40   50 1   
    45   42   43 1   
    46   42   48 1   
    47   42   49 1   
    48   43   44 1   
    49   43   45 1   
    50   50   51 1   
    51   50   54 1   
    52   51   52 1   
    53   51   55 1   
    54   51   56 1   
    55   52   53 2   
    56   52   57 1   
    57   57   58 1   
    58   57   65 1   
    59   58   59 1   
    60   58   61 1   
    61   58   66 1   
    62   59   60 2   
    63   59   69 1   
    64   61   62 1   
    65   61   67 1   
    66   61   68 1   
    67   62   63 1   
    68   62   64 1   
    69   69   70 1   
    70   69   73 1   
    71   70   71 1   
    72   70   74 1   
    73   70   75 1   
    74   71   72 2   
    75   71   76 1   
    76   76   77 1   
    77   76   85 1   
    78   77   78 1   
    79   77   80 1   
    80   77   86 1   
    81   78   79 2   
    82   78   93 1   
    83   80   81 1   
    84   80   87 1   
    85   80   88 1   
    86   81   82 1   
    87   81   89 1   
    88   81   90 1   
    89   82   83 1   
    90   82   84 2   
    91   83   91 1   
    92   83   92 1   
    93   93   94 1   
    94   93  100 1   
    95   94   95 1   
    96   94   97 1   
    97   94  101 1   
    98   95   96 2   
    99   95  109 1   
   100   97   98 1   
   101   97   99 1   
   102   97  102 1   
   103   98  103 1   
   104   98  104 1   
   105   98  105 1   
   106   99  106 1   
   107   99  107 1   
   108   99  108 1   
   109  109  110 1   
   110  109  117 1   
   111  110  111 1   
   112  110  113 1   
   113  110  118 1   
   114  111  112 2   
   115  111  123 1   
   116  113  114 1   
   117  113  119 1   
   118  113  120 1   
   119  114  115 1   
   120  114  116 2   
   121  115  121 1   
   122  115  122 1   
   123  123  124 1   
   124  123  135 1   
   125  124  125 1   
   126  124  127 1   
   127  124  136 1   
   128  125  126 2   
   129  125  144 1   
   130  127  128 1   
   131  127  137 1   
   132  127  138 1   
   133  128  129 ar  
   134  128  130 ar  
   135  129  131 ar  
   136  129  139 1   
   137  130  132 ar  
   138  130  140 1   
   139  131  133 ar  
   140  131  141 1   
   141  132  133 ar  
   142  132  142 1   
   143  133  134 1   
   144  134  143 1   
   145  144  145 1   
   146  144  153 1   
   147  145  146 1   
   148  145  148 1   
   149  145  154 1   
   150  146  147 2   
   151  146  159 1   
   152  148  149 1   
   153  148  155 1   
   154  148  156 1   
   155  149  150 1   
   156  149  157 1   
   157  149  158 1   
   158  150  151 1   
   159  150  152 1   
   160  159  160 1   
   161  159  168 1   
   162  160  161 1   
   163  160  163 1   
   164  160  169 1   
   165  161  162 2   
   166  161  174 1   
   167  163  164 1   
   168  163  170 1   
   169  163  171 1   
   170  164  165 1   
   171  164  172 1   
   172  164  173 1   
   173  165  166 1   
   174  165  167 1   
   175  174  175 1   
   176  174  179 1   
   177  175  176 1   
   178  175  177 1   
   179  175  178 1   
   180  181  182 1   
   181  181  183 1   
   182  184  185 1   
   183  184  186 1   
   184  187  188 1   
   185  187  189 1   
@<TRIPOS>SUBSTRUCTURE
     1 MOL         1 TEMP              0 ****  ****    0 ROOT
