@<TRIPOS>MOLECULE
MOL
  189   185     1     0     0
SMALL
resp


@<TRIPOS>ATOM
      1 C1         -0.1220    4.3500    5.6970 c3        1 MOL     -0.521980
      2 C2         -0.6640    3.7940    4.4140 c         1 MOL      0.752873
      3 O1         -0.5370    2.6150    4.1720 o         1 MOL     -0.581712
      4 H1          0.8880    4.7240    5.5320 hc        1 MOL      0.138306
      5 H2         -0.7590    5.1660    6.0380 hc        1 MOL      0.138306
      6 H3         -0.1000    3.5660    6.4520 hc        1 MOL      0.138306
      7 N1         -1.4500    4.5590    3.6130 n         1 MOL     -0.635982
      8 C3         -2.0680    4.1770    2.3490 c3        1 MOL      0.411781
      9 C4         -1.8110    5.1260    1.1280 c         1 MOL      0.321369
     10 O2         -1.8830    6.3570    1.2020 o         1 MOL     -0.570944
     11 C5         -3.6030    3.9900    2.6320 c3        1 MOL     -0.280002
     12 C6         -4.2810    2.9780    1.7060 c         1 MOL      0.796173
     13 O3         -5.4060    2.5070    1.9800 o         1 MOL     -0.711166
     14 O4         -3.6190    2.5710    0.7390 o         1 MOL     -0.711166
     15 H4         -1.6910    5.5000    3.8810 hn        1 MOL      0.288803
     16 H5         -1.5610    3.2710    2.0270 h1        1 MOL      0.004382
     17 H6         -4.1250    4.9490    2.5540 hc        1 MOL      0.046812
     18 H7         -3.7470    3.6090    3.6410 hc        1 MOL      0.046812
     19 N2         -1.5080    4.5080   -0.0240 n         1 MOL     -0.118851
     20 C7         -1.0620    5.2600   -1.2670 c3        1 MOL     -0.077745
     21 C8         -2.0160    4.9380   -2.3690 c         1 MOL      0.613339
     22 O5         -2.0690    5.6170   -3.3790 o         1 MOL     -0.593109
     23 C9          0.4290    4.8650   -1.4720 c3        1 MOL      0.379291
     24 C10         1.3960    5.3560   -0.4060 c3        1 MOL      0.084246
     25 C11         0.9790    5.4840   -2.7580 c3        1 MOL     -0.372854
     26 C12         2.8210    4.7390   -0.3930 c3        1 MOL     -0.264753
     27 H8         -1.3770    3.4980    0.0330 hn        1 MOL      0.009453
     28 H9         -1.1160    6.3520   -1.1820 h1        1 MOL      0.066230
     29 H10         0.5500    3.7800   -1.5380 hc        1 MOL     -0.029039
     30 H11         1.0080    5.0750    0.5790 hc        1 MOL     -0.046038
     31 H12         1.3820    6.4490   -0.3450 hc        1 MOL     -0.046038
     32 H13         2.0320    5.2520   -2.9180 hc        1 MOL      0.073568
     33 H14         0.4120    5.1540   -3.6180 hc        1 MOL      0.073568
     34 H15         0.9250    6.5780   -2.6880 hc        1 MOL      0.073568
     35 H16         2.7580    3.6610   -0.4980 hc        1 MOL      0.069409
     36 H17         3.4420    5.1380   -1.1970 hc        1 MOL      0.069409
     37 H18         3.1780    4.9000    0.6220 hc        1 MOL      0.069409
     38 N3         -2.7360    3.8220   -2.2420 n         1 MOL     -0.504681
     39 C13        -3.6290    3.3080   -3.3570 c3        1 MOL      0.111873
     40 C14        -5.0740    2.9330   -2.9600 c         1 MOL      0.363656
     41 O6         -5.9450    2.7470   -3.8130 o         1 MOL     -0.545149
     42 C15        -2.8800    2.1450   -4.0180 c3        1 MOL     -0.482874
     43 C16        -2.3460    1.1030   -3.0730 c         1 MOL      0.883194
     44 O7         -2.9720    0.9580   -1.9720 o         1 MOL     -0.698136
     45 O8         -1.3200    0.5350   -3.3170 o         1 MOL     -0.698136
     46 H19        -2.5750    3.1980   -1.4660 hn        1 MOL      0.292824
     47 H20        -3.6940    4.1070   -4.0940 h1        1 MOL      0.108722
     48 H21        -2.0250    2.6570   -4.4570 hc        1 MOL      0.127427
     49 H22        -3.4730    1.5420   -4.7110 hc        1 MOL      0.127427
     50 N4         -5.3940    2.8990   -1.6900 n         1 MOL     -0.161471
     51 C17        -6.7710    2.6100   -1.2010 c3        1 MOL     -0.150311
     52 C18        -7.2440    1.2080   -1.3530 c         1 MOL      0.418962
     53 O9         -8.4600    0.9320   -1.4630 o         1 MOL     -0.582222
     54 H23        -4.6690    2.9820   -0.9920 hn        1 MOL      0.109685
     55 H24        -7.4460    3.3040   -1.7030 h1        1 MOL      0.104489
     56 H25        -6.7250    2.8610   -0.1430 h1        1 MOL      0.104489
     57 N5         -6.3520    0.2340   -1.6260 n         1 MOL      0.009547
     58 C19        -6.7560   -1.0280   -2.1850 c3        1 MOL     -0.204648
     59 C20        -7.1780   -2.0400   -1.0690 c         1 MOL      0.485564
     60 O10        -7.8470   -3.0130   -1.3490 o         1 MOL     -0.541296
     61 C21        -5.4870   -1.6550   -2.8850 c3        1 MOL     -0.058690
     62 C22        -4.1950   -1.9210   -1.9980 c         1 MOL      0.606036
     63 O11        -4.0390   -1.4270   -0.8660 o         1 MOL     -0.682440
     64 O12        -3.2820   -2.6430   -2.5400 o         1 MOL     -0.682440
     65 H26        -5.3680    0.4560   -1.6740 hn        1 MOL      0.150061
     66 H27        -7.4960   -0.8820   -2.9680 h1        1 MOL      0.132675
     67 H28        -5.2570   -0.9810   -3.7110 hc        1 MOL      0.040616
     68 H29        -5.7040   -2.5540   -3.4650 hc        1 MOL      0.040616
     69 N6         -6.7880   -1.7720    0.2210 n         1 MOL     -0.237067
     70 C23        -7.0910   -2.7550    1.2980 c3        1 MOL     -0.232421
     71 C24        -5.9230   -3.7550    1.4770 c         1 MOL      0.576147
     72 O13        -6.1320   -4.7960    2.0560 o         1 MOL     -0.618223
     73 H30        -6.2160   -0.9550    0.4140 hn        1 MOL      0.184709
     74 H31        -8.0450   -3.2330    1.0690 h1        1 MOL      0.109753
     75 H32        -7.0970   -2.1970    2.2400 h1        1 MOL      0.109753
     76 N7         -4.7100   -3.4510    1.0980 n         1 MOL     -0.269269
     77 C25        -3.4420   -4.2180    1.3800 c3        1 MOL      0.038746
     78 C26        -2.3890   -3.2980    1.9600 c         1 MOL      0.335727
     79 O14        -2.4290   -2.0680    1.8470 o         1 MOL     -0.460413
     80 C27        -2.9180   -4.8240    0.1110 c3        1 MOL      0.198929
     81 C28        -3.8510   -5.7640   -0.6210 c3        1 MOL     -0.492240
     82 C29        -3.2470   -6.6020   -1.7390 c         1 MOL      0.757013
     83 N8         -2.8710   -5.9840   -2.8310 n         1 MOL     -0.774304
     84 O15        -3.1420   -7.8030   -1.7550 o         1 MOL     -0.620469
     85 H33        -4.5770   -2.5140    0.7390 hn        1 MOL      0.232034
     86 H34        -3.6290   -5.0130    2.1040 h1        1 MOL      0.048144
     87 H35        -2.0800   -5.4620    0.3970 hc        1 MOL     -0.000226
     88 H36        -2.4510   -4.1050   -0.5590 hc        1 MOL     -0.000226
     89 H37        -4.5780   -5.0930   -1.0660 hc        1 MOL      0.143080
     90 H38        -4.1990   -6.4040    0.1950 hc        1 MOL      0.143080
     91 H39        -2.9440   -4.9950   -3.0080 hn        1 MOL      0.338963
     92 H40        -2.4590   -6.4600   -3.6210 hn        1 MOL      0.338963
     93 N9         -1.2990   -3.8590    2.4630 n         1 MOL     -0.416909
     94 C30         0.0020   -3.1080    2.7290 c3        1 MOL      0.189777
     95 C31         1.0250   -3.4950    1.6660 c         1 MOL      0.327550
     96 O16         1.2390   -4.6930    1.5310 o         1 MOL     -0.585375
     97 C32         0.6050   -3.3500    4.1430 c3        1 MOL      0.276993
     98 C33         1.7450   -2.4100    4.4340 c3        1 MOL     -0.282290
     99 C34        -0.4410   -3.2250    5.2370 c3        1 MOL     -0.282290
    100 H41        -1.3110   -4.8650    2.5570 hn        1 MOL      0.259364
    101 H42        -0.2520   -2.0530    2.7200 h1        1 MOL      0.021078
    102 H43         0.9490   -4.3800    4.2710 hc        1 MOL     -0.027861
    103 H44         1.3660   -1.3920    4.4990 hc        1 MOL      0.052566
    104 H45         2.1510   -2.6140    5.4280 hc        1 MOL      0.052566
    105 H46         2.4970   -2.4670    3.6570 hc        1 MOL      0.052566
    106 H47        -1.1840   -2.4430    5.0430 hc        1 MOL      0.052566
    107 H48        -0.9200   -4.1920    5.3700 hc        1 MOL      0.052566
    108 H49         0.0190   -3.0660    6.2240 hc        1 MOL      0.052566
    109 N10         1.6100   -2.5490    0.9830 n         1 MOL      0.002783
    110 C35         2.7190   -2.7090    0.0230 c3        1 MOL      0.227618
    111 C36         4.0950   -2.3140    0.5820 c         1 MOL      0.111190
    112 O17         4.1380   -1.9270    1.7710 o         1 MOL     -0.334885
    113 C37         2.4120   -1.7120   -1.1540 c3        1 MOL     -0.242862
    114 C38         3.3500   -1.7580   -2.3680 c         1 MOL      0.890000
    115 N11         3.1050   -2.6940   -3.2380 n         1 MOL     -0.920928
    116 O18         4.3340   -0.9790   -2.5450 o         1 MOL     -0.609881
    117 H50         1.1720   -1.6530    1.1430 hn        1 MOL     -0.030457
    118 H51         2.7250   -3.7160   -0.3980 h1        1 MOL      0.010298
    119 H52         2.3870   -0.6820   -0.7930 hc        1 MOL      0.057851
    120 H53         1.4320   -2.0020   -1.5290 hc        1 MOL      0.057851
    121 H54         2.4180   -3.3730   -2.9360 hn        1 MOL      0.399077
    122 H55         3.2900   -2.5780   -4.2180 hn        1 MOL      0.399077
    123 N12         5.2140   -2.5480   -0.1520 n         1 MOL     -0.014667
    124 C39         6.5120   -2.5290    0.4990 c3        1 MOL      0.008020
    125 C40         6.9990   -1.0790    0.8200 c         1 MOL      0.348022
    126 O19         7.8890   -0.8030    1.6550 o         1 MOL     -0.565173
    127 C41         7.4760   -3.2230   -0.4280 c3        1 MOL     -0.043952
    128 C42         7.3920   -2.7690   -1.8930 ca        1 MOL     -0.020688
    129 C43         6.5120   -3.5090   -2.6670 ca        1 MOL     -0.116271
    130 C44         8.1560   -1.7230   -2.3810 ca        1 MOL     -0.116271
    131 C45         6.2740   -3.0960   -3.9860 ca        1 MOL     -0.247450
    132 C46         7.9230   -1.3690   -3.7300 ca        1 MOL     -0.247450
    133 C47         6.8880   -1.9990   -4.5440 ca        1 MOL      0.338026
    134 O20         6.6030   -1.6680   -5.8360 oh        1 MOL     -0.470459
    135 H56         5.2030   -2.6110   -1.1590 hn        1 MOL     -0.013762
    136 H57         6.5630   -3.1050    1.4220 h1        1 MOL      0.091752
    137 H58         7.2360   -4.2760   -0.3700 hc        1 MOL      0.022434
    138 H59         8.4820   -3.0360   -0.0320 hc        1 MOL      0.022434
    139 H60         6.0990   -4.4670   -2.3870 ha        1 MOL      0.129720
    140 H61         8.8490   -1.2620   -1.6830 ha        1 MOL      0.129720
    141 H62         5.6010   -3.7640   -4.5120 ha        1 MOL      0.123259
    142 H63         8.3880   -0.4860   -4.1640 ha        1 MOL      0.123259
    143 H64         5.7050   -1.9360   -6.0270 ho        1 MOL      0.361498
    144 N13         6.3680   -0.0830    0.2390 n         1 MOL      0.041166
    145 C48         6.5450    1.3770    0.4720 c3        1 MOL     -0.280146
    146 C49         5.6250    1.9270    1.6000 c         1 MOL      0.519074
    147 O21         5.8060    3.0310    2.1230 o         1 MOL     -0.532552
    148 C50         6.2580    2.0890   -0.8350 c3        1 MOL     -0.004452
    149 C51         7.1030    1.7630   -2.0440 c3        1 MOL     -0.213359
    150 C52         6.7370    2.7820   -3.1150 c         1 MOL      0.710017
    151 O22         6.9710    3.9930   -2.9030 o         1 MOL     -0.727160
    152 O23         6.3610    2.4360   -4.2940 o         1 MOL     -0.727160
    153 H65         5.7620   -0.3000   -0.5330 hn        1 MOL      0.131199
    154 H66         7.5470    1.7040    0.7440 h1        1 MOL      0.145006
    155 H67         6.2590    3.1480   -0.5790 hc        1 MOL      0.042417
    156 H68         5.2810    1.8910   -1.2840 hc        1 MOL      0.042417
    157 H69         6.9470    0.7510   -2.4350 hc        1 MOL      0.071431
    158 H70         8.1650    1.8020   -1.8270 hc        1 MOL      0.071431
    159 N14         4.5540    1.1790    1.9500 n         1 MOL     -0.322270
    160 C53         3.5970    1.4310    3.0060 c3        1 MOL      0.005053
    161 C54         4.0070    0.7880    4.3150 c         1 MOL      0.442679
    162 O24         4.0080    1.4460    5.3620 o         1 MOL     -0.560027
    163 C55         2.1910    0.9010    2.5030 c3        1 MOL     -0.033562
    164 C56         1.6890    1.6850    1.2240 c3        1 MOL     -0.012826
    165 C57         0.3610    1.1710    0.7830 c         1 MOL      0.590838
    166 O25        -0.5100    1.8010    0.1620 o         1 MOL     -0.614040
    167 O26         0.0230   -0.0550    0.9310 o         1 MOL     -0.614040
    168 H71         4.5570    0.2780    1.4850 hn        1 MOL      0.150389
    169 H72         3.6230    2.5200    3.0710 h1        1 MOL      0.086729
    170 H73         1.3890    1.0770    3.2190 hc        1 MOL      0.034783
    171 H74         2.1460   -0.1640    2.2910 hc        1 MOL      0.034783
    172 H75         2.4180    1.5300    0.4280 hc        1 MOL      0.049315
    173 H76         1.4810    2.7550    1.3360 hc        1 MOL      0.049315
    174 N15         4.3850   -0.5050    4.2940 n         1 MOL     -0.081156
    175 C58         4.9380   -1.2140    5.4580 c3        1 MOL     -0.066401
    176 H77         5.2810   -0.4880    6.1940 h1        1 MOL      0.040527
    177 H78         4.1660   -1.8430    5.9010 h1        1 MOL      0.040527
    178 H79         5.7760   -1.8340    5.1410 h1        1 MOL      0.040527
    179 H80         4.4210   -0.9650    3.3910 hn        1 MOL      0.077262
    180 Ca1        -2.4510    0.1880    0.3640 Ca        1 MOL      1.681990
    181 O27        -2.1340    0.7740    3.0050 oh        1 MOL     -0.837491
    182 O28        -1.2570   -1.3490   -1.5750 oh        1 MOL     -0.837491
    183 H81        -1.4830    1.3090    3.4510 ho        1 MOL      0.394833
    184 H82        -1.1470   -0.6380   -2.2120 ho        1 MOL      0.394833
    185 H83        -2.6290    0.3590    3.7230 ho        1 MOL      0.394833
    186 H84        -1.9750   -1.8760   -1.9160 ho        1 MOL      0.394833
    187 O29        -4.6690   -0.1910    1.8030 oh        1 MOL     -0.837491
    188 H85        -4.4680   -0.4240    2.7050 ho        1 MOL      0.394833
    189 H86        -5.0400    0.6970    1.8580 ho        1 MOL      0.394833
@<TRIPOS>BOND
     1    1    2 1   
     2    1    4 1   
     3    1    5 1   
     4    1    6 1   
     5    2    3 2   
     6    2    7 1   
     7    7    8 1   
     8    7   15 1   
     9    8    9 1   
    10    8   11 1   
    11    8   16 1   
    12    9   10 2   
    13    9   19 1   
    14   11   12 1   
    15   11   17 1   
    16   11   18 1   
    17   12   13 1   
    18   12   14 1   
    19   19   20 1   
    20   19   27 1   
    21   20   21 1   
    22   20   23 1   
    23   20   28 1   
    24   21   22 2   
    25   21   38 1   
    26   23   24 1   
    27   23   25 1   
    28   23   29 1   
    29   24   26 1   
    30   24   30 1   
    31   24   31 1   
    32   25   32 1   
    33   25   33 1   
    34   25   34 1   
    35   26   35 1   
    36   26   36 1   
    37   26   37 1   
    38   38   39 1   
    39   38   46 1   
    40   39   40 1   
    41   39   42 1   
    42   39   47 1   
    43   40   41 2   
    44   40   50 1   
    45   42   43 1   
    46   42   48 1   
    47   42   49 1   
    48   43   44 1   
    49   43   45 1   
    50   50   51 1   
    51   50   54 1   
    52   51   52 1   
    53   51   55 1   
    54   51   56 1   
    55   52   53 2   
    56   52   57 1   
    57   57   58 1   
    58   57   65 1   
    59   58   59 1   
    60   58   61 1   
    61   58   66 1   
    62   59   60 2   
    63   59   69 1   
    64   61   62 1   
    65   61   67 1   
    66   61   68 1   
    67   62   63 1   
    68   62   64 1   
    69   69   70 1   
    70   69   73 1   
    71   70   71 1   
    72   70   74 1   
    73   70   75 1   
    74   71   72 2   
    75   71   76 1   
    76   76   77 1   
    77   76   85 1   
    78   77   78 1   
    79   77   80 1   
    80   77   86 1   
    81   78   79 2   
    82   78   93 1   
    83   80   81 1   
    84   80   87 1   
    85   80   88 1   
    86   81   82 1   
    87   81   89 1   
    88   81   90 1   
    89   82   83 1   
    90   82   84 2   
    91   83   91 1   
    92   83   92 1   
    93   93   94 1   
    94   93  100 1   
    95   94   95 1   
    96   94   97 1   
    97   94  101 1   
    98   95   96 2   
    99   95  109 1   
   100   97   98 1   
   101   97   99 1   
   102   97  102 1   
   103   98  103 1   
   104   98  104 1   
   105   98  105 1   
   106   99  106 1   
   107   99  107 1   
   108   99  108 1   
   109  109  110 1   
   110  109  117 1   
   111  110  111 1   
   112  110  113 1   
   113  110  118 1   
   114  111  112 2   
   115  111  123 1   
   116  113  114 1   
   117  113  119 1   
   118  113  120 1   
   119  114  115 1   
   120  114  116 2   
   121  115  121 1   
   122  115  122 1   
   123  123  124 1   
   124  123  135 1   
   125  124  125 1   
   126  124  127 1   
   127  124  136 1   
   128  125  126 2   
   129  125  144 1   
   130  127  128 1   
   131  127  137 1   
   132  127  138 1   
   133  128  129 ar  
   134  128  130 ar  
   135  129  131 ar  
   136  129  139 1   
   137  130  132 ar  
   138  130  140 1   
   139  131  133 ar  
   140  131  141 1   
   141  132  133 ar  
   142  132  142 1   
   143  133  134 1   
   144  134  143 1   
   145  144  145 1   
   146  144  153 1   
   147  145  146 1   
   148  145  148 1   
   149  145  154 1   
   150  146  147 2   
   151  146  159 1   
   152  148  149 1   
   153  148  155 1   
   154  148  156 1   
   155  149  150 1   
   156  149  157 1   
   157  149  158 1   
   158  150  151 1   
   159  150  152 1   
   160  159  160 1   
   161  159  168 1   
   162  160  161 1   
   163  160  163 1   
   164  160  169 1   
   165  161  162 2   
   166  161  174 1   
   167  163  164 1   
   168  163  170 1   
   169  163  171 1   
   170  164  165 1   
   171  164  172 1   
   172  164  173 1   
   173  165  166 1   
   174  165  167 1   
   175  174  175 1   
   176  174  179 1   
   177  175  176 1   
   178  175  177 1   
   179  175  178 1   
   180  181  183 1   
   181  181  185 1   
   182  182  184 1   
   183  182  186 1   
   184  187  188 1   
   185  187  189 1   
@<TRIPOS>SUBSTRUCTURE
     1 MOL         1 TEMP              0 ****  ****    0 ROOT
