@<TRIPOS>MOLECULE
MOL
  175   173     1     0     0
SMALL
resp


@<TRIPOS>ATOM
      1 C1          0.5280    4.5240    5.2890 c3        1 MOL     -0.381429
      2 C2         -0.1470    4.4050    3.8670 c         1 MOL      0.724560
      3 O1          0.5820    4.5830    2.8470 o         1 MOL     -0.585374
      4 H1          0.5650    3.5400    5.7560 hc        1 MOL      0.093948
      5 H2          1.5400    4.9130    5.1800 hc        1 MOL      0.093948
      6 H3         -0.0560    5.2000    5.9140 hc        1 MOL      0.093948
      7 N1         -1.4370    4.1740    3.7220 n         1 MOL     -0.648303
      8 C3         -2.0850    3.9130    2.4500 c3        1 MOL      0.203767
      9 C4         -2.1800    5.0840    1.5340 c         1 MOL      0.567976
     10 O2         -2.2800    6.2540    1.9410 o         1 MOL     -0.567022
     11 C5         -3.4470    3.3230    2.8040 c3        1 MOL     -0.424898
     12 C6         -4.0790    2.4500    1.7440 c         1 MOL      0.966239
     13 O3         -5.1950    1.9450    1.9640 o         1 MOL     -0.742440
     14 O4         -3.5570    2.3410    0.6140 o         1 MOL     -0.742440
     15 H4         -1.9850    3.9420    4.5290 hn        1 MOL      0.326280
     16 H5         -1.5000    3.1150    2.0100 h1        1 MOL      0.130600
     17 H6         -3.9940    4.1920    3.1890 hc        1 MOL      0.069907
     18 H7         -3.2940    2.6080    3.6180 hc        1 MOL      0.069907
     19 N2         -2.1800    4.7860    0.2270 n         1 MOL     -0.618292
     20 C7         -2.5090    5.7130   -0.8840 c3        1 MOL      0.542837
     21 C8         -3.3070    4.9770   -1.9950 c         1 MOL      0.273620
     22 O5         -3.2670    5.5280   -3.1260 o         1 MOL     -0.536562
     23 C9         -1.1840    6.3790   -1.2640 c3        1 MOL     -0.619879
     24 H8         -2.0320    3.7990    0.0920 hn        1 MOL      0.357309
     25 H9         -3.2230    6.4110   -0.4530 h1        1 MOL     -0.025433
     26 H10        -1.3340    7.4280   -1.5240 hc        1 MOL      0.158475
     27 H11        -0.5400    6.5000   -0.4000 hc        1 MOL      0.158475
     28 H12        -0.7120    5.7920   -2.0550 hc        1 MOL      0.158475
     29 N3         -3.9290    3.7590   -1.8880 n         1 MOL     -0.121682
     30 C10        -4.7740    3.0830   -2.9740 c3        1 MOL     -0.060798
     31 C11        -6.0340    2.3370   -2.6050 c         1 MOL      0.414599
     32 O6         -6.8110    1.9570   -3.4830 o         1 MOL     -0.525252
     33 C12        -3.9350    2.1470   -3.8390 c3        1 MOL     -0.231333
     34 C13        -3.2310    1.2190   -3.0080 c         1 MOL      0.791770
     35 O7         -1.9850    1.3690   -2.7790 o         1 MOL     -0.737085
     36 O8         -3.8380    0.4050   -2.3060 o         1 MOL     -0.737085
     37 H13        -3.8890    3.3090   -0.9830 hn        1 MOL      0.063760
     38 H14        -5.1710    3.8080   -3.6810 h1        1 MOL      0.115513
     39 H15        -3.1420    2.6440   -4.4080 hc        1 MOL      0.073505
     40 H16        -4.4270    1.3980   -4.4560 hc        1 MOL      0.073505
     41 N4         -6.2180    1.9750   -1.3190 n         1 MOL     -0.297637
     42 C14        -7.3310    1.1510   -0.7950 c3        1 MOL     -0.119127
     43 C15        -7.4860   -0.3360   -1.2670 c         1 MOL      0.446593
     44 O9         -8.5200   -0.9470   -1.0370 o         1 MOL     -0.580784
     45 H17        -5.5270    2.1510   -0.6070 hn        1 MOL      0.213978
     46 H18        -8.2520    1.7210   -0.8850 h1        1 MOL      0.100646
     47 H19        -7.2430    1.2140    0.2870 h1        1 MOL      0.100646
     48 N5         -6.3890   -0.9090   -1.8060 n         1 MOL     -0.202575
     49 C16        -6.3090   -2.3450   -2.1250 c3        1 MOL     -0.045071
     50 C17        -6.3370   -3.3250   -0.9480 c         1 MOL      0.489942
     51 O10        -6.4440   -4.4750   -1.2220 o         1 MOL     -0.557087
     52 C18        -5.0550   -2.6620   -3.0010 c3        1 MOL     -0.067036
     53 C19        -3.6790   -2.6430   -2.4080 c         1 MOL      0.651138
     54 N6         -2.6970   -2.9310   -3.1940 n         1 MOL     -0.645099
     55 O11        -3.4400   -2.3180   -1.2430 o         1 MOL     -0.670923
     56 H20        -5.5210   -0.3860   -1.7250 hn        1 MOL      0.223216
     57 H21        -7.1310   -2.6670   -2.7660 h1        1 MOL      0.102866
     58 H22        -5.0340   -2.0010   -3.8760 hc        1 MOL      0.020644
     59 H23        -5.2850   -3.6520   -3.4020 hc        1 MOL      0.020644
     60 H24        -2.8820   -3.1140   -4.1670 hn        1 MOL      0.332221
     61 H25        -1.8260   -2.5650   -2.8270 hn        1 MOL      0.332221
     62 N7         -6.2330   -2.8340    0.2680 n         1 MOL     -0.124154
     63 C20        -6.3730   -3.6950    1.4280 c3        1 MOL     -0.448944
     64 C21        -4.9940   -4.2290    1.9090 c         1 MOL      0.643994
     65 O12        -5.0140   -5.0180    2.7890 o         1 MOL     -0.559233
     66 H26        -6.1170   -1.8370    0.3420 hn        1 MOL      0.210899
     67 H27        -7.0150   -4.5550    1.2080 h1        1 MOL      0.168221
     68 H28        -6.7240   -3.1130    2.2850 h1        1 MOL      0.168221
     69 N8         -3.8920   -3.8180    1.2140 n         1 MOL     -0.465642
     70 C22        -2.4920   -4.3410    1.5810 c3        1 MOL     -0.042362
     71 C23        -1.4050   -3.2860    1.7300 c         1 MOL      0.424770
     72 O13        -1.4770   -2.2440    1.1000 o         1 MOL     -0.358836
     73 C24        -1.9130   -5.3320    0.5810 c3        1 MOL      0.614191
     74 C25        -2.8170   -6.5570    0.3970 c3        1 MOL     -0.658236
     75 O14        -1.9310   -4.6930   -0.6320 oh        1 MOL     -0.536604
     76 H29        -4.0480   -3.1990    0.4290 hn        1 MOL      0.389323
     77 H30        -2.5890   -4.9630    2.4720 h1        1 MOL      0.043265
     78 H31        -0.9140   -5.6480    0.8860 h1        1 MOL     -0.061148
     79 H32        -2.2910   -3.8180   -0.4390 ho        1 MOL      0.209514
     80 H33        -2.3060   -7.3620   -0.1350 hc        1 MOL      0.156013
     81 H34        -3.1960   -6.7900    1.3950 hc        1 MOL      0.156013
     82 H35        -3.6770   -6.2890   -0.2240 hc        1 MOL      0.156013
     83 N9         -0.3640   -3.5140    2.5240 n         1 MOL     -0.564045
     84 C26         0.8780   -2.7960    2.5350 c3        1 MOL      0.044589
     85 C27         1.5960   -2.9000    1.1640 c         1 MOL      0.509139
     86 O15         2.0040   -4.0230    0.7920 o         1 MOL     -0.577972
     87 C28         1.7150   -3.0250    3.8370 c3        1 MOL      0.046346
     88 C29         0.9330   -2.7310    5.1380 c3        1 MOL      0.201951
     89 C30         2.9560   -2.1170    3.8260 c3        1 MOL     -0.182385
     90 C31         1.6560   -2.8300    6.4940 c3        1 MOL     -0.390465
     91 H36        -0.2530   -4.4560    2.8700 hn        1 MOL      0.309185
     92 H37         0.6890   -1.7270    2.5990 h1        1 MOL      0.029547
     93 H38         2.0280   -4.0610    3.7540 hc        1 MOL      0.007748
     94 H39         0.1200   -3.4520    5.1710 hc        1 MOL     -0.026132
     95 H40         0.4690   -1.7380    5.1630 hc        1 MOL     -0.026132
     96 H41         2.8290   -1.0970    4.1780 hc        1 MOL      0.037251
     97 H42         3.7610   -2.4650    4.4780 hc        1 MOL      0.037251
     98 H43         3.3900   -2.0760    2.8310 hc        1 MOL      0.037251
     99 H44         0.9320   -2.8760    7.2980 hc        1 MOL      0.092605
    100 H45         2.3000   -3.7090    6.4700 hc        1 MOL      0.092605
    101 H46         2.1840   -1.8790    6.5990 hc        1 MOL      0.092605
    102 N10         1.7880   -1.8190    0.4170 n         1 MOL     -0.194310
    103 C32         2.5420   -1.8470   -0.8790 c3        1 MOL      0.014010
    104 C33         3.9930   -1.4060   -0.7520 c         1 MOL      0.446458
    105 O16         4.2660   -0.6930    0.2300 o         1 MOL     -0.384645
    106 C34         1.8990   -1.2230   -2.0670 c3        1 MOL     -0.083932
    107 C35         0.4090   -1.5300   -2.3900 c         1 MOL      0.595616
    108 O17        -0.4520   -1.1070   -1.5590 o         1 MOL     -0.635831
    109 O18         0.0880   -1.9310   -3.5370 o         1 MOL     -0.635831
    110 H47         1.2970   -0.9650    0.6100 hn        1 MOL      0.171026
    111 H48         2.6290   -2.9060   -1.1160 h1        1 MOL      0.038447
    112 H49         2.4380   -1.4520   -2.9950 hc        1 MOL      0.020971
    113 H50         1.9620   -0.1440   -1.9290 hc        1 MOL      0.020971
    114 N11         4.8570   -1.8450   -1.5940 n         1 MOL     -0.497917
    115 C36         6.2440   -1.6270   -1.4800 c3        1 MOL      0.268548
    116 C37         6.6010   -0.2420   -1.1530 c         1 MOL      0.420340
    117 O19         7.3130   -0.1160   -0.1610 o         1 MOL     -0.519776
    118 C38         6.9380   -2.1540   -2.7190 c3        1 MOL     -0.064910
    119 C39         8.4120   -2.0370   -2.5660 ca        1 MOL     -0.016456
    120 C40         9.1600   -1.1340   -3.3290 ca        1 MOL     -0.117791
    121 C41         9.0630   -2.8560   -1.6230 ca        1 MOL     -0.117791
    122 C42        10.5610   -1.0230   -3.2180 ca        1 MOL     -0.115898
    123 C43        10.5040   -2.8310   -1.5570 ca        1 MOL     -0.115898
    124 C44        11.2290   -1.8620   -2.3130 ca        1 MOL     -0.123177
    125 H51         4.5500   -2.3400   -2.4190 hn        1 MOL      0.301591
    126 H52         6.5530   -2.2380   -0.6390 h1        1 MOL      0.042092
    127 H53         6.6000   -1.6220   -3.6110 hc        1 MOL      0.032052
    128 H54         6.6410   -3.1960   -2.8550 hc        1 MOL      0.032052
    129 H55         8.8090   -0.5500   -4.1590 ha        1 MOL      0.107883
    130 H56         8.5200   -3.5970   -1.0580 ha        1 MOL      0.107883
    131 H57        11.1320   -0.4390   -3.9220 ha        1 MOL      0.109982
    132 H58        10.9800   -3.4980   -0.8450 ha        1 MOL      0.109982
    133 H59        12.2900   -1.7330   -2.1800 ha        1 MOL      0.106044
    134 N12         6.2730    0.8930   -1.8440 n         1 MOL      0.011794
    135 C45         6.6460    2.1860   -1.3690 c3        1 MOL     -0.268667
    136 C46         5.9880    2.5430   -0.0250 c         1 MOL      0.535979
    137 O20         6.5540    3.3120    0.6820 o         1 MOL     -0.538472
    138 C47         6.2350    3.1270   -2.5330 c3        1 MOL      0.008102
    139 C48         5.2170    2.3950   -3.3870 c3        1 MOL     -0.131631
    140 C49         5.6650    0.9200   -3.1460 c3        1 MOL      0.042714
    141 H60         7.7260    2.2090   -1.2750 h1        1 MOL      0.107387
    142 H61         5.8610    4.0800   -2.1580 hc        1 MOL      0.043732
    143 H62         7.0530    3.4070   -3.2100 hc        1 MOL      0.043732
    144 H63         4.2070    2.4960   -2.9860 hc        1 MOL      0.057156
    145 H64         5.4000    2.7860   -4.3870 hc        1 MOL      0.057156
    146 H65         4.9310    0.1330   -3.2630 h1        1 MOL     -0.000572
    147 H66         6.3830    0.7660   -3.9490 h1        1 MOL     -0.000572
    148 N13         4.8860    1.9530    0.3490 n         1 MOL     -0.153735
    149 C50         4.2580    2.2380    1.5930 c3        1 MOL     -0.169530
    150 C51         5.0150    1.7380    2.7540 c         1 MOL      0.424770
    151 O21         5.0820    2.4410    3.8080 o         1 MOL     -0.572493
    152 C52         2.8040    1.7310    1.6050 c3        1 MOL      0.014257
    153 C53         1.9540    2.0550    0.3590 c3        1 MOL      0.032427
    154 C54         0.5170    1.7160    0.5380 c         1 MOL      0.478485
    155 O22        -0.4350    2.1960   -0.1030 o         1 MOL     -0.671452
    156 O23         0.2390    0.7070    1.1860 o         1 MOL     -0.671452
    157 H67         4.5820    1.1390   -0.1720 hn        1 MOL      0.087841
    158 H68         4.2790    3.3190    1.7880 h1        1 MOL      0.119890
    159 H69         2.3280    2.1470    2.4940 hc        1 MOL      0.030650
    160 H70         2.7880    0.6630    1.8230 hc        1 MOL      0.030650
    161 H71         2.2430    1.4110   -0.4780 hc        1 MOL      0.040469
    162 H72         2.1740    3.0250   -0.0750 hc        1 MOL      0.040469
    163 N14         5.6290    0.5750    2.6510 n         1 MOL     -0.011663
    164 C55         6.5620   -0.0400    3.5790 c3        1 MOL     -0.133594
    165 H73         6.1490   -0.9820    3.9400 h1        1 MOL      0.056884
    166 H74         7.5080   -0.2300    3.0710 h1        1 MOL      0.056884
    167 H75         6.7310    0.6290    4.4230 h1        1 MOL      0.056884
    168 H76         5.4420    0.1080    1.7790 hn        1 MOL      0.085434
    169 Ca1        -2.1430    0.2380   -0.3040 Ca        1 MOL      1.730252
    170 O24        -4.1940   -0.6100    1.3580 oh        1 MOL     -0.876135
    171 H77        -4.9180   -0.0220    1.5790 ho        1 MOL      0.409267
    172 H78        -3.6550   -0.6360    2.1450 ho        1 MOL      0.409267
    173 O25        -1.9720    0.2780    2.5640 oh        1 MOL     -0.876135
    174 H79        -1.0470    0.2880    2.3330 ho        1 MOL      0.409267
    175 H80        -1.9950    0.4210    3.5120 ho        1 MOL      0.409267
@<TRIPOS>BOND
     1    1    2 1   
     2    1    4 1   
     3    1    5 1   
     4    1    6 1   
     5    2    3 2   
     6    2    7 1   
     7    7    8 1   
     8    7   15 1   
     9    8    9 1   
    10    8   11 1   
    11    8   16 1   
    12    9   10 2   
    13    9   19 1   
    14   11   12 1   
    15   11   17 1   
    16   11   18 1   
    17   12   13 1   
    18   12   14 1   
    19   19   20 1   
    20   19   24 1   
    21   20   21 1   
    22   20   23 1   
    23   20   25 1   
    24   21   22 2   
    25   21   29 1   
    26   23   26 1   
    27   23   27 1   
    28   23   28 1   
    29   29   30 1   
    30   29   37 1   
    31   30   31 1   
    32   30   33 1   
    33   30   38 1   
    34   31   32 2   
    35   31   41 1   
    36   33   34 1   
    37   33   39 1   
    38   33   40 1   
    39   34   35 1   
    40   34   36 1   
    41   41   42 1   
    42   41   45 1   
    43   42   43 1   
    44   42   46 1   
    45   42   47 1   
    46   43   44 2   
    47   43   48 1   
    48   48   49 1   
    49   48   56 1   
    50   49   50 1   
    51   49   52 1   
    52   49   57 1   
    53   50   51 2   
    54   50   62 1   
    55   52   53 1   
    56   52   58 1   
    57   52   59 1   
    58   53   54 1   
    59   53   55 2   
    60   54   60 1   
    61   54   61 1   
    62   62   63 1   
    63   62   66 1   
    64   63   64 1   
    65   63   67 1   
    66   63   68 1   
    67   64   65 2   
    68   64   69 1   
    69   69   70 1   
    70   69   76 1   
    71   70   71 1   
    72   70   73 1   
    73   70   77 1   
    74   71   72 2   
    75   71   83 1   
    76   73   74 1   
    77   73   75 1   
    78   73   78 1   
    79   74   80 1   
    80   74   81 1   
    81   74   82 1   
    82   75   79 1   
    83   83   84 1   
    84   83   91 1   
    85   84   85 1   
    86   84   87 1   
    87   84   92 1   
    88   85   86 2   
    89   85  102 1   
    90   87   88 1   
    91   87   89 1   
    92   87   93 1   
    93   88   90 1   
    94   88   94 1   
    95   88   95 1   
    96   89   96 1   
    97   89   97 1   
    98   89   98 1   
    99   90   99 1   
   100   90  100 1   
   101   90  101 1   
   102  102  103 1   
   103  102  110 1   
   104  103  104 1   
   105  103  106 1   
   106  103  111 1   
   107  104  105 2   
   108  104  114 1   
   109  106  107 1   
   110  106  112 1   
   111  106  113 1   
   112  107  108 1   
   113  107  109 1   
   114  114  115 1   
   115  114  125 1   
   116  115  116 1   
   117  115  118 1   
   118  115  126 1   
   119  116  117 2   
   120  116  134 1   
   121  118  119 1   
   122  118  127 1   
   123  118  128 1   
   124  119  120 ar  
   125  119  121 ar  
   126  120  122 ar  
   127  120  129 1   
   128  121  123 ar  
   129  121  130 1   
   130  122  124 ar  
   131  122  131 1   
   132  123  124 ar  
   133  123  132 1   
   134  124  133 1   
   135  134  135 1   
   136  134  140 1   
   137  135  136 1   
   138  135  138 1   
   139  135  141 1   
   140  136  137 2   
   141  136  148 1   
   142  138  139 1   
   143  138  142 1   
   144  138  143 1   
   145  139  140 1   
   146  139  144 1   
   147  139  145 1   
   148  140  146 1   
   149  140  147 1   
   150  148  149 1   
   151  148  157 1   
   152  149  150 1   
   153  149  152 1   
   154  149  158 1   
   155  150  151 2   
   156  150  163 1   
   157  152  153 1   
   158  152  159 1   
   159  152  160 1   
   160  153  154 1   
   161  153  161 1   
   162  153  162 1   
   163  154  155 1   
   164  154  156 1   
   165  163  164 1   
   166  163  168 1   
   167  164  165 1   
   168  164  166 1   
   169  164  167 1   
   170  170  171 1   
   171  170  172 1   
   172  173  174 1   
   173  173  175 1   
@<TRIPOS>SUBSTRUCTURE
     1 MOL         1 TEMP              0 ****  ****    0 ROOT
