@<TRIPOS>MOLECULE
MOL
  175   173     1     0     0
SMALL
resp


@<TRIPOS>ATOM
      1 C1          0.1800    3.6370    5.6810 c3        1 MOL     -0.323250
      2 C2         -0.4250    3.6140    4.2510 c         1 MOL      0.732283
      3 O1          0.3770    3.8510    3.3240 o         1 MOL     -0.559740
      4 H1         -0.3470    4.3730    6.2870 hc        1 MOL      0.074987
      5 H2          0.0770    2.6510    6.1360 hc        1 MOL      0.074987
      6 H3          1.2360    3.9020    5.6250 hc        1 MOL      0.074987
      7 N1         -1.7240    3.4380    4.0180 n         1 MOL     -0.664437
      8 C3         -2.3600    3.3960    2.7090 c3        1 MOL      0.395880
      9 C4         -2.3610    4.7350    1.9470 c         1 MOL      0.398889
     10 O2         -2.3050    5.8130    2.5620 o         1 MOL     -0.553075
     11 C5         -3.7240    2.6970    2.8920 c3        1 MOL     -0.402363
     12 C6         -4.3980    2.5600    1.5290 c         1 MOL      0.686683
     13 O3         -5.4040    3.2460    1.3540 o         1 MOL     -0.634605
     14 O4         -3.8440    1.8590    0.6380 o         1 MOL     -0.634605
     15 H4         -2.2950    3.1090    4.7820 hn        1 MOL      0.300906
     16 H5         -1.7840    2.7390    2.0600 h1        1 MOL     -0.083729
     17 H6         -4.3130    3.3770    3.5060 hc        1 MOL      0.078219
     18 H7         -3.6290    1.7500    3.4160 hc        1 MOL      0.078219
     19 N2         -2.4400    4.6190    0.6330 n         1 MOL     -0.167404
     20 C7         -2.6630    5.6560   -0.3520 c3        1 MOL      0.149155
     21 C8         -3.4270    5.0220   -1.5540 c         1 MOL      0.454836
     22 O5         -3.1950    5.5120   -2.6210 o         1 MOL     -0.516699
     23 C9         -1.3310    6.3880   -0.6920 c3        1 MOL     -0.121928
     24 H8         -2.3800    3.6690    0.2910 hn        1 MOL      0.202864
     25 H9         -3.3040    6.4080    0.1200 h1        1 MOL      0.014760
     26 H10        -0.4770    5.8220   -0.3260 hc        1 MOL      0.028836
     27 H11        -1.2150    6.6170   -1.7560 hc        1 MOL      0.028836
     28 H12        -1.2720    7.3370   -0.1530 hc        1 MOL      0.028836
     29 N3         -4.2880    3.9450   -1.4760 n         1 MOL     -0.243513
     30 C10        -4.8530    3.3260   -2.7290 c3        1 MOL     -0.026034
     31 C11        -6.1300    2.5230   -2.5020 c         1 MOL      0.468454
     32 O6         -6.8320    2.2470   -3.5430 o         1 MOL     -0.567977
     33 C12        -3.8770    2.5450   -3.5740 c3        1 MOL     -0.046325
     34 C13        -3.2570    1.5060   -2.7140 c         1 MOL      0.683865
     35 O7         -3.9510    0.6730   -2.1060 o         1 MOL     -0.701123
     36 O8         -1.9920    1.4900   -2.6240 o         1 MOL     -0.701123
     37 H13        -4.5330    3.4310   -0.6450 hn        1 MOL      0.008084
     38 H14        -5.2770    4.1780   -3.2580 h1        1 MOL      0.058328
     39 H15        -3.1820    3.2730   -4.0050 hc        1 MOL      0.031794
     40 H16        -4.3240    2.1220   -4.4750 hc        1 MOL      0.031794
     41 N4         -6.4460    2.0650   -1.2980 n         1 MOL     -0.258360
     42 C14        -7.5870    1.1200   -1.0070 c3        1 MOL     -0.241797
     43 C15        -7.4880   -0.3180   -1.4650 c         1 MOL      0.484772
     44 O9         -8.5340   -0.9200   -1.6650 o         1 MOL     -0.597732
     45 H17        -5.8060    2.1210   -0.5220 hn        1 MOL      0.269651
     46 H18        -8.4700    1.6470   -1.3660 h1        1 MOL      0.116727
     47 H19        -7.5870    0.9610    0.0730 h1        1 MOL      0.116727
     48 N5         -6.3100   -0.8650   -1.7100 n         1 MOL      0.008894
     49 C16        -6.2350   -2.1970   -2.2180 c3        1 MOL     -0.017180
     50 C17        -6.2680   -3.2450   -1.0960 c         1 MOL      0.402408
     51 O10        -6.2660   -4.4160   -1.4080 o         1 MOL     -0.509675
     52 C18        -5.0020   -2.3210   -3.0550 c3        1 MOL     -0.237864
     53 C19        -3.6660   -2.2270   -2.3500 c         1 MOL      0.742335
     54 N6         -2.5510   -2.4500   -3.1040 n         1 MOL     -0.659106
     55 O11        -3.5300   -1.9350   -1.1810 o         1 MOL     -0.781139
     56 H20        -5.4750   -0.2950   -1.7240 hn        1 MOL      0.086419
     57 H21        -7.0920   -2.3550   -2.8650 h1        1 MOL      0.098724
     58 H22        -5.0230   -1.5280   -3.8050 hc        1 MOL      0.077438
     59 H23        -5.0550   -3.2960   -3.5360 hc        1 MOL      0.077438
     60 H24        -2.7580   -2.8810   -3.9860 hn        1 MOL      0.307783
     61 H25        -1.6140   -2.1460   -2.8830 hn        1 MOL      0.307783
     62 N7         -6.1220   -2.8390    0.1560 n         1 MOL     -0.260676
     63 C20        -6.2070   -3.7690    1.3030 c3        1 MOL     -0.213219
     64 C21        -4.9190   -4.4140    1.7840 c         1 MOL      0.551166
     65 O12        -4.9450   -5.3330    2.6010 o         1 MOL     -0.574825
     66 H26        -5.8610   -1.8800    0.2860 hn        1 MOL      0.202598
     67 H27        -6.9680   -4.5100    1.0460 h1        1 MOL      0.108245
     68 H28        -6.6290   -3.1460    2.0870 h1        1 MOL      0.108245
     69 N8         -3.8150   -3.9640    1.1920 n         1 MOL     -0.397365
     70 C22        -2.4210   -4.5160    1.4000 c3        1 MOL     -0.104843
     71 C23        -1.3550   -3.4150    1.3860 c         1 MOL      0.422574
     72 O13        -1.5470   -2.4400    0.6400 o         1 MOL     -0.456640
     73 C24        -1.9930   -5.4290    0.2560 c3        1 MOL      0.506760
     74 C25        -2.5920   -6.8530    0.4110 c3        1 MOL     -0.522785
     75 O14        -2.4390   -4.9200   -0.9900 oh        1 MOL     -0.600901
     76 H29        -3.8960   -3.2410    0.4970 hn        1 MOL      0.461600
     77 H30        -2.2740   -5.1070    2.3110 h1        1 MOL      0.079542
     78 H31        -0.9060   -5.4930    0.2820 h1        1 MOL     -0.025435
     79 H32        -2.2200   -3.9900   -1.0490 ho        1 MOL      0.338320
     80 H33        -2.3770   -7.3510    1.3590 hc        1 MOL      0.133945
     81 H34        -3.6730   -6.8470    0.2360 hc        1 MOL      0.133945
     82 H35        -2.0850   -7.4690   -0.3330 hc        1 MOL      0.133945
     83 N9         -0.2360   -3.6210    2.0650 n         1 MOL     -0.409059
     84 C26         0.9780   -2.7720    2.0430 c3        1 MOL     -0.302123
     85 C27         1.7000   -3.0300    0.7980 c         1 MOL      0.706986
     86 O15         2.1630   -4.1400    0.4980 o         1 MOL     -0.608958
     87 C28         1.8290   -3.0180    3.3050 c3        1 MOL      0.295066
     88 C29         1.1700   -2.7470    4.6380 c3        1 MOL      0.041761
     89 C30         3.1310   -2.0930    3.1840 c3        1 MOL     -0.250095
     90 C31         2.0360   -2.9760    5.9450 c3        1 MOL     -0.167615
     91 H36        -0.2430   -4.4770    2.6030 hn        1 MOL      0.282411
     92 H37         0.7400   -1.7100    2.1320 h1        1 MOL      0.152781
     93 H38         2.2010   -4.0440    3.3370 hc        1 MOL     -0.043289
     94 H39         0.3240   -3.4160    4.7130 hc        1 MOL     -0.020782
     95 H40         0.8270   -1.7060    4.5820 hc        1 MOL     -0.020782
     96 H41         2.7510   -1.0790    3.1350 hc        1 MOL      0.046592
     97 H42         3.8610   -2.2690    3.9800 hc        1 MOL      0.046592
     98 H43         3.6400   -2.3080    2.2470 hc        1 MOL      0.046592
     99 H44         2.4950   -3.9660    5.9190 hc        1 MOL      0.039067
    100 H45         2.8540   -2.2660    6.0650 hc        1 MOL      0.039067
    101 H46         1.3840   -2.8320    6.7970 hc        1 MOL      0.039067
    102 N10         1.9010   -1.9610   -0.0180 n         1 MOL     -0.429041
    103 C32         2.7970   -1.9270   -1.2610 c3        1 MOL      0.096479
    104 C33         4.1510   -1.3990   -0.9640 c         1 MOL      0.433363
    105 O16         4.3900   -0.8240    0.0980 o         1 MOL     -0.271453
    106 C34         2.1320   -1.2110   -2.4280 c3        1 MOL     -0.252751
    107 C35         0.6550   -1.4010   -2.6680 c         1 MOL      0.699760
    108 O17        -0.1740   -0.8560   -1.8380 o         1 MOL     -0.654155
    109 O18         0.2950   -1.9840   -3.7130 o         1 MOL     -0.654155
    110 H47         1.5340   -1.0860    0.3250 hn        1 MOL      0.224190
    111 H48         2.9230   -2.9750   -1.5130 h1        1 MOL      0.076094
    112 H49         2.8810   -1.3880   -3.1970 hc        1 MOL      0.065987
    113 H50         2.2120   -0.1370   -2.2630 hc        1 MOL      0.065987
    114 N11         5.1030   -1.6730   -1.8320 n         1 MOL     -0.652785
    115 C36         6.4790   -1.3450   -1.6330 c3        1 MOL      0.378815
    116 C37         6.7570    0.1410   -1.1560 c         1 MOL      0.376485
    117 O19         7.3770    0.3010   -0.1180 o         1 MOL     -0.490490
    118 C38         7.3470   -1.8580   -2.7700 c3        1 MOL     -0.192013
    119 C39         8.8600   -1.6580   -2.5820 ca        1 MOL      0.133733
    120 C40         9.3980   -2.1520   -1.4010 ca        1 MOL     -0.236983
    121 C41         9.6970   -0.8020   -3.2880 ca        1 MOL     -0.236983
    122 C42        10.6550   -1.7600   -1.0010 ca        1 MOL     -0.007786
    123 C43        11.0000   -0.4720   -2.8870 ca        1 MOL     -0.007786
    124 C44        11.4840   -0.9410   -1.7410 ca        1 MOL     -0.186831
    125 H51         4.8590   -2.1300   -2.6910 hn        1 MOL      0.343575
    126 H52         6.7210   -1.8780   -0.7060 h1        1 MOL      0.054829
    127 H53         7.0590   -1.4300   -3.7340 hc        1 MOL      0.053910
    128 H54         7.1240   -2.9230   -2.8500 hc        1 MOL      0.053910
    129 H55         8.8130   -2.7160   -0.6970 ha        1 MOL      0.116848
    130 H56         9.2190   -0.3010   -4.1170 ha        1 MOL      0.116848
    131 H57        11.0830   -2.0580   -0.0580 ha        1 MOL      0.078334
    132 H58        11.6520    0.1960   -3.4250 ha        1 MOL      0.078334
    133 H59        12.3950   -0.5240   -1.3450 ha        1 MOL      0.123497
    134 N12         6.2200    1.1930   -1.8030 n         1 MOL     -0.117761
    135 C45         6.2960    2.5720   -1.3190 c3        1 MOL      0.109504
    136 C46         5.6970    2.7590    0.1210 c         1 MOL      0.163245
    137 O20         5.9330    3.7690    0.8670 o         1 MOL     -0.496339
    138 C47         5.5500    3.4530   -2.3130 c3        1 MOL     -0.149017
    139 C48         5.6090    2.6500   -3.6250 c3        1 MOL      0.183708
    140 C49         5.6300    1.2230   -3.1130 c3        1 MOL     -0.087126
    141 H60         7.3710    2.7580   -1.3060 h1        1 MOL      0.051873
    142 H61         4.4770    3.5490   -2.1150 hc        1 MOL      0.067336
    143 H62         6.0390    4.4220   -2.3720 hc        1 MOL      0.067336
    144 H63         4.8320    2.9320   -4.3280 hc        1 MOL     -0.030482
    145 H64         6.5750    2.8560   -4.0770 hc        1 MOL     -0.030482
    146 H65         4.6110    0.8350   -3.1300 h1        1 MOL      0.033144
    147 H66         6.1450    0.6340   -3.8810 h1        1 MOL      0.033144
    148 N13         4.7490    1.8680    0.4290 n         1 MOL      0.062421
    149 C50         4.0410    1.9440    1.7500 c3        1 MOL     -0.026433
    150 C51         4.8030    1.1730    2.8510 c         1 MOL      0.419731
    151 O21         4.7770    1.4680    4.0240 o         1 MOL     -0.548213
    152 C52         2.6350    1.4030    1.6210 c3        1 MOL     -0.075102
    153 C53         1.6970    2.2770    0.8280 c3        1 MOL     -0.013829
    154 C54         0.3260    1.5380    0.6710 c         1 MOL      0.547581
    155 O22         0.1890    0.4040    1.1830 o         1 MOL     -0.657615
    156 O23        -0.5700    2.0570    0.0520 o         1 MOL     -0.657615
    157 H67         4.5600    1.0350   -0.1160 hn        1 MOL      0.004529
    158 H68         4.0000    2.9970    2.0080 h1        1 MOL      0.098474
    159 H69         2.2190    1.2770    2.6160 hc        1 MOL      0.050370
    160 H70         2.6120    0.4660    1.0810 hc        1 MOL      0.050370
    161 H71         2.2040    2.5910   -0.0750 hc        1 MOL      0.036607
    162 H72         1.5470    3.2780    1.2250 hc        1 MOL      0.036607
    163 N14         5.6120    0.1750    2.3990 n         1 MOL     -0.028975
    164 C55         6.7290   -0.4510    3.2430 c3        1 MOL     -0.229244
    165 H73         7.3930   -1.0240    2.5970 h1        1 MOL      0.086186
    166 H74         7.2950    0.3380    3.7390 h1        1 MOL      0.086186
    167 H75         6.2920   -1.1110    3.9920 h1        1 MOL      0.086186
    168 H76         5.4950   -0.1240    1.4380 hn        1 MOL      0.021273
    169 Ca1        -2.2000    0.0300   -0.2450 Ca        1 MOL      1.770761
    170 O24        -1.6810    0.0100    2.9650 oh        1 MOL     -0.874103
    171 H77        -0.8030    0.1330    2.6080 ho        1 MOL      0.415459
    172 H78        -1.6380    0.4030    3.8410 ho        1 MOL      0.415459
    173 O25        -3.9000   -0.9320    1.7000 oh        1 MOL     -0.874103
    174 H79        -4.6990   -1.0240    2.2070 ho        1 MOL      0.415459
    175 H80        -3.2240   -0.7100    2.3330 ho        1 MOL      0.415459
@<TRIPOS>BOND
     1    1    2 1   
     2    1    4 1   
     3    1    5 1   
     4    1    6 1   
     5    2    3 2   
     6    2    7 1   
     7    7    8 1   
     8    7   15 1   
     9    8    9 1   
    10    8   11 1   
    11    8   16 1   
    12    9   10 2   
    13    9   19 1   
    14   11   12 1   
    15   11   17 1   
    16   11   18 1   
    17   12   13 1   
    18   12   14 1   
    19   19   20 1   
    20   19   24 1   
    21   20   21 1   
    22   20   23 1   
    23   20   25 1   
    24   21   22 2   
    25   21   29 1   
    26   23   26 1   
    27   23   27 1   
    28   23   28 1   
    29   29   30 1   
    30   29   37 1   
    31   30   31 1   
    32   30   33 1   
    33   30   38 1   
    34   31   32 2   
    35   31   41 1   
    36   33   34 1   
    37   33   39 1   
    38   33   40 1   
    39   34   35 1   
    40   34   36 1   
    41   41   42 1   
    42   41   45 1   
    43   42   43 1   
    44   42   46 1   
    45   42   47 1   
    46   43   44 2   
    47   43   48 1   
    48   48   49 1   
    49   48   56 1   
    50   49   50 1   
    51   49   52 1   
    52   49   57 1   
    53   50   51 2   
    54   50   62 1   
    55   52   53 1   
    56   52   58 1   
    57   52   59 1   
    58   53   54 1   
    59   53   55 2   
    60   54   60 1   
    61   54   61 1   
    62   62   63 1   
    63   62   66 1   
    64   63   64 1   
    65   63   67 1   
    66   63   68 1   
    67   64   65 2   
    68   64   69 1   
    69   69   70 1   
    70   69   76 1   
    71   70   71 1   
    72   70   73 1   
    73   70   77 1   
    74   71   72 2   
    75   71   83 1   
    76   73   74 1   
    77   73   75 1   
    78   73   78 1   
    79   74   80 1   
    80   74   81 1   
    81   74   82 1   
    82   75   79 1   
    83   83   84 1   
    84   83   91 1   
    85   84   85 1   
    86   84   87 1   
    87   84   92 1   
    88   85   86 2   
    89   85  102 1   
    90   87   88 1   
    91   87   89 1   
    92   87   93 1   
    93   88   90 1   
    94   88   94 1   
    95   88   95 1   
    96   89   96 1   
    97   89   97 1   
    98   89   98 1   
    99   90   99 1   
   100   90  100 1   
   101   90  101 1   
   102  102  103 1   
   103  102  110 1   
   104  103  104 1   
   105  103  106 1   
   106  103  111 1   
   107  104  105 2   
   108  104  114 1   
   109  106  107 1   
   110  106  112 1   
   111  106  113 1   
   112  107  108 1   
   113  107  109 1   
   114  114  115 1   
   115  114  125 1   
   116  115  116 1   
   117  115  118 1   
   118  115  126 1   
   119  116  117 2   
   120  116  134 1   
   121  118  119 1   
   122  118  127 1   
   123  118  128 1   
   124  119  120 ar  
   125  119  121 ar  
   126  120  122 ar  
   127  120  129 1   
   128  121  123 ar  
   129  121  130 1   
   130  122  124 ar  
   131  122  131 1   
   132  123  124 ar  
   133  123  132 1   
   134  124  133 1   
   135  134  135 1   
   136  134  140 1   
   137  135  136 1   
   138  135  138 1   
   139  135  141 1   
   140  136  137 2   
   141  136  148 1   
   142  138  139 1   
   143  138  142 1   
   144  138  143 1   
   145  139  140 1   
   146  139  144 1   
   147  139  145 1   
   148  140  146 1   
   149  140  147 1   
   150  148  149 1   
   151  148  157 1   
   152  149  150 1   
   153  149  152 1   
   154  149  158 1   
   155  150  151 2   
   156  150  163 1   
   157  152  153 1   
   158  152  159 1   
   159  152  160 1   
   160  153  154 1   
   161  153  161 1   
   162  153  162 1   
   163  154  155 1   
   164  154  156 1   
   165  163  164 1   
   166  163  168 1   
   167  164  165 1   
   168  164  166 1   
   169  164  167 1   
   170  170  171 1   
   171  170  172 1   
   172  173  174 1   
   173  173  175 1   
@<TRIPOS>SUBSTRUCTURE
     1 MOL         1 TEMP              0 ****  ****    0 ROOT
