@<TRIPOS>MOLECULE
MOL
  182   178     1     0     0
SMALL
resp


@<TRIPOS>ATOM
      1 C1         -1.4490   -3.4350    5.9180 c3        1 MOL     -0.385503
      2 C2         -1.1390   -2.9690    4.4870 c         1 MOL      0.686479
      3 O1         -2.0460   -2.9790    3.5870 o         1 MOL     -0.627370
      4 H1         -1.7950   -4.4690    5.8960 hc        1 MOL      0.104446
      5 H2         -0.5480   -3.3670    6.5270 hc        1 MOL      0.104446
      6 H3         -2.2260   -2.8020    6.3470 hc        1 MOL      0.104446
      7 N1          0.1230   -2.5980    4.1910 n         1 MOL     -0.557630
      8 C3          0.6150   -2.2360    2.8530 c3        1 MOL      0.349386
      9 C4          0.6310   -3.5870    2.0200 c         1 MOL      0.353487
     10 O2          1.3150   -4.5670    2.4530 o         1 MOL     -0.550607
     11 C5          2.0350   -1.5660    3.1110 c3        1 MOL     -0.224886
     12 C6          2.8520   -1.3000    1.7980 c         1 MOL      0.847855
     13 O3          2.3900   -1.6390    0.6690 o         1 MOL     -0.722166
     14 O4          3.9950   -0.8420    1.9390 o         1 MOL     -0.722166
     15 H4          0.7480   -2.7420    4.9690 hn        1 MOL      0.307245
     16 H5          0.0310   -1.4490    2.3720 h1        1 MOL     -0.091023
     17 H6          2.6530   -2.1810    3.7750 hc        1 MOL      0.040224
     18 H7          1.7500   -0.6560    3.6240 hc        1 MOL      0.040224
     19 N2          0.0220   -3.6300    0.8300 n         1 MOL     -0.095878
     20 C7         -0.1600   -4.8940    0.0830 c3        1 MOL     -0.234993
     21 C8          0.9890   -5.3870   -0.8160 c         1 MOL      0.612887
     22 O5          0.7720   -6.4840   -1.4020 o         1 MOL     -0.587120
     23 C9         -1.5410   -4.8790   -0.6230 c3        1 MOL     -0.040931
     24 C10        -2.7150   -5.0450    0.3010 c3        1 MOL     -0.107673
     25 C11        -4.1050   -5.1030   -0.4420 c3        1 MOL     -0.102214
     26 C12        -5.1710   -5.4790    0.6720 c3        1 MOL     -0.118154
     27 N3         -4.9720   -6.7530    1.4510 n4        1 MOL     -0.219587
     28 H8         -0.4350   -2.8160    0.4510 hn        1 MOL      0.143532
     29 H9         -0.2790   -5.7320    0.7740 h1        1 MOL      0.114954
     30 H10        -1.5990   -5.6430   -1.3980 hc        1 MOL      0.056804
     31 H11        -1.6670   -3.9750   -1.2010 hc        1 MOL      0.056804
     32 H12        -2.6610   -4.1500    0.9260 hc        1 MOL      0.079158
     33 H13        -2.5320   -5.9440    0.8880 hc        1 MOL      0.079158
     34 H14        -4.0810   -5.8430   -1.2370 hc        1 MOL      0.082386
     35 H15        -4.3150   -4.1350   -0.9040 hc        1 MOL      0.082386
     36 H16        -6.1950   -5.4920    0.3050 hx        1 MOL      0.139288
     37 H17        -5.1530   -4.6760    1.4180 hx        1 MOL      0.139288
     38 H18        -4.1370   -6.7530    2.0240 hn        1 MOL      0.289627
     39 H19        -5.7400   -7.0150    2.0580 hn        1 MOL      0.289627
     40 H20        -4.9230   -7.6040    0.9190 hn        1 MOL      0.289627
     41 N4          2.0680   -4.6360   -1.0550 n         1 MOL     -0.401944
     42 C13         3.2280   -5.0970   -1.8240 c3        1 MOL      0.001957
     43 C14         4.5470   -4.5690   -1.2560 c         1 MOL      0.458740
     44 O6          5.5980   -4.9680   -1.7360 o         1 MOL     -0.508371
     45 C15         3.1670   -4.5900   -3.2440 c3        1 MOL     -0.211971
     46 C16         3.0000   -3.1010   -3.4620 c         1 MOL      0.852608
     47 O7          2.7440   -2.7760   -4.6340 o         1 MOL     -0.737820
     48 O8          2.9970   -2.3600   -2.4730 o         1 MOL     -0.737820
     49 H21         2.0630   -3.6470   -0.8430 hn        1 MOL      0.190921
     50 H22         3.3560   -6.1810   -1.7470 h1        1 MOL      0.126157
     51 H23         2.2700   -5.0600   -3.6590 hc        1 MOL      0.060605
     52 H24         4.0000   -5.0620   -3.7490 hc        1 MOL      0.060605
     53 N5          4.4860   -3.8910   -0.0950 n         1 MOL     -0.269691
     54 C17         5.6980   -3.6160    0.6720 c3        1 MOL     -0.188305
     55 C18         6.5060   -2.4250    0.2070 c         1 MOL      0.482921
     56 O9          7.6620   -2.2330    0.5960 o         1 MOL     -0.582308
     57 H25         3.6070   -3.6640    0.3570 hn        1 MOL      0.236820
     58 H26         6.2610   -4.5480    0.5870 h1        1 MOL      0.114718
     59 H27         5.4680   -3.5280    1.7390 h1        1 MOL      0.114718
     60 N6          5.8380   -1.6150   -0.5270 n         1 MOL     -0.081277
     61 C19         6.4790   -0.3590   -1.0530 c3        1 MOL     -0.118693
     62 C20         6.5390    0.8650   -0.1210 c         1 MOL      0.302552
     63 O10         6.9660    1.9670   -0.4600 o         1 MOL     -0.417533
     64 C21         5.7830    0.0030   -2.3930 c3        1 MOL     -0.266607
     65 C22         4.3830    0.6460   -2.2740 c         1 MOL      0.337703
     66 N7          4.0210    1.5120   -3.1820 n         1 MOL     -0.679390
     67 O11         3.6920    0.4210   -1.3460 o         1 MOL     -0.204649
     68 H28         4.8460   -1.7550   -0.5190 hn        1 MOL      0.076029
     69 H29         7.5230   -0.5310   -1.2970 h1        1 MOL      0.165521
     70 H30         5.7750   -0.8870   -3.0210 hc        1 MOL      0.113075
     71 H31         6.3670    0.8330   -2.7920 hc        1 MOL      0.113075
     72 H32         4.6760    1.5420   -3.9530 hn        1 MOL      0.357813
     73 H33         3.1360    2.0170   -3.1260 hn        1 MOL      0.357813
     74 N8          6.1720    0.6750    1.1360 n         1 MOL     -0.138375
     75 C23         6.2910    1.8320    2.0860 c3        1 MOL     -0.418824
     76 C24         5.0860    2.7920    2.0800 c         1 MOL      0.665453
     77 O12         5.1230    3.8660    2.7310 o         1 MOL     -0.572808
     78 H34         5.7550   -0.1830    1.4580 hn        1 MOL      0.295297
     79 H35         7.1530    2.4720    1.8850 h1        1 MOL      0.176574
     80 H36         6.3660    1.4040    3.0900 h1        1 MOL      0.176574
     81 N9          3.9940    2.4490    1.4160 n         1 MOL     -0.509093
     82 C25         2.8660    3.3040    1.2620 c3        1 MOL      0.200111
     83 C26         1.6110    2.4660    1.1320 c         1 MOL      0.505562
     84 O13         1.5850    1.3910    0.5890 o         1 MOL     -0.618901
     85 C27         2.9250    4.2560    0.0800 c3        1 MOL      0.226967
     86 C28         4.1470    5.1290    0.0270 ca        1 MOL     -0.325658
     87 C29         5.3080    4.5750   -0.5190 ca        1 MOL      0.072588
     88 C30         4.2950    6.3930    0.6730 ca        1 MOL      0.072588
     89 C31         6.4890    5.3510   -0.6490 ca        1 MOL     -0.408918
     90 C32         5.4490    7.1710    0.5680 ca        1 MOL     -0.408918
     91 C33         6.5470    6.6580   -0.1260 ca        1 MOL      0.515297
     92 O14         7.5510    7.5150   -0.3860 oh        1 MOL     -0.512218
     93 H37         4.0010    1.5320    0.9870 hn        1 MOL      0.275875
     94 H38         2.7460    3.9530    2.1250 h1        1 MOL      0.018986
     95 H39         2.0360    4.8760    0.0110 hc        1 MOL     -0.034452
     96 H40         2.9220    3.5740   -0.7780 hc        1 MOL     -0.034452
     97 H41         5.1890    3.5760   -0.8990 ha        1 MOL      0.067463
     98 H42         3.4240    6.8150    1.1510 ha        1 MOL      0.067463
     99 H43         7.3850    4.9260   -1.0800 ha        1 MOL      0.163818
    100 H44         5.5330    8.1490    1.0210 ha        1 MOL      0.163818
    101 H45         7.3050    8.3740   -0.0410 ho        1 MOL      0.351052
    102 N10         0.5270    3.1580    1.5010 n         1 MOL     -0.661876
    103 C34        -0.7930    2.5650    1.4950 c3        1 MOL      0.191856
    104 C35        -1.8750    3.4920    0.7860 c         1 MOL      0.498955
    105 O15        -2.0940    4.6400    1.2000 o         1 MOL     -0.535826
    106 C36        -1.0750    2.0950    2.9010 c3        1 MOL      0.081660
    107 C37        -2.1490    0.9860    2.7060 c3        1 MOL      0.369415
    108 C38        -1.4010    3.2040    3.9020 c3        1 MOL     -0.490414
    109 C39        -2.5140    0.2880    4.0690 c3        1 MOL     -0.251308
    110 H46         0.6440    4.0730    1.9340 hn        1 MOL      0.361142
    111 H47        -0.7120    1.6720    0.8640 h1        1 MOL     -0.007208
    112 H48        -0.2220    1.5870    3.3540 hc        1 MOL      0.080861
    113 H49        -1.8710    0.1950    2.0150 hc        1 MOL     -0.161015
    114 H50        -3.0450    1.5160    2.3860 hc        1 MOL     -0.161015
    115 H51        -1.4610    2.7090    4.8750 hc        1 MOL      0.123398
    116 H52        -0.6200    3.9550    3.8350 hc        1 MOL      0.123398
    117 H53        -2.3360    3.7200    3.6830 hc        1 MOL      0.123398
    118 H54        -3.2710   -0.4730    3.8700 hc        1 MOL      0.049327
    119 H55        -1.5940   -0.1250    4.4800 hc        1 MOL      0.049327
    120 H56        -2.9800    1.0330    4.7140 hc        1 MOL      0.049327
    121 N11        -2.5050    2.9550   -0.2520 n         1 MOL     -0.302094
    122 C40        -3.5670    3.6310   -1.0510 c3        1 MOL     -0.013467
    123 C41        -5.0000    3.5100   -0.4000 c         1 MOL      0.328532
    124 O16        -5.2190    2.5530    0.3020 o         1 MOL     -0.251415
    125 C42        -3.7560    3.2620   -2.5170 c3        1 MOL     -0.349782
    126 O17        -4.2640    1.9750   -2.6720 oh        1 MOL     -0.412045
    127 H57        -2.3820    1.9730   -0.4640 hn        1 MOL      0.284636
    128 H58        -3.1980    4.6520   -1.1300 h1        1 MOL      0.096439
    129 H59        -2.7400    3.2390   -2.9210 h1        1 MOL      0.172898
    130 H60        -4.3890    4.0480   -2.9450 h1        1 MOL      0.172898
    131 H61        -3.6430    1.3670   -3.0790 ho        1 MOL      0.406252
    132 N12        -5.9640    4.3980   -0.7600 n         1 MOL     -0.390719
    133 C43        -7.3520    4.2550   -0.3460 c3        1 MOL      0.055400
    134 C44        -7.9460    2.9970   -0.9970 c         1 MOL      0.442968
    135 O18        -8.8710    2.3840   -0.3850 o         1 MOL     -0.499535
    136 C45        -8.0240    5.6630   -0.6540 c3        1 MOL     -0.255937
    137 H62        -5.6740    5.1140   -1.4180 hn        1 MOL      0.279091
    138 H63        -7.3040    4.1050    0.7290 h1        1 MOL      0.129367
    139 H64        -9.0580    5.5240   -0.3400 hc        1 MOL      0.091674
    140 H65        -7.6110    6.5560   -0.1880 hc        1 MOL      0.091674
    141 H66        -8.0180    5.7700   -1.7400 hc        1 MOL      0.091674
    142 N13        -7.5060    2.3890   -2.1330 n         1 MOL     -0.344970
    143 C46        -7.8150    1.0910   -2.6760 c3        1 MOL      0.067709
    144 C47        -7.1520   -0.0940   -1.9110 c         1 MOL      0.326395
    145 O19        -7.9450   -1.0240   -1.6550 o         1 MOL     -0.501654
    146 C48        -7.3260    0.9420   -4.1690 c3        1 MOL     -0.265880
    147 H67        -6.8640    2.9680   -2.6560 hn        1 MOL      0.246930
    148 H68        -8.8980    0.9740   -2.5760 h1        1 MOL      0.118577
    149 H69        -6.2520    0.8640   -4.3270 hc        1 MOL      0.079559
    150 H70        -7.7860    0.0060   -4.4970 hc        1 MOL      0.079559
    151 H71        -7.7580    1.7080   -4.8140 hc        1 MOL      0.079559
    152 N14        -5.9820    0.0520   -1.2670 n         1 MOL     -0.022612
    153 C49        -5.4360   -0.8330   -0.2440 c3        1 MOL     -0.056894
    154 C50        -6.2130   -0.7230    1.0760 c         1 MOL      0.477643
    155 O20        -6.5890   -1.7480    1.6170 o         1 MOL     -0.561383
    156 C51        -3.9780   -0.6510    0.0070 c3        1 MOL     -0.237153
    157 C52        -2.9870   -1.1760   -1.0510 c3        1 MOL      0.155531
    158 C53        -1.6320   -0.5850   -0.8810 c         1 MOL      0.457482
    159 O21        -1.3250    0.4850   -1.3830 o         1 MOL     -0.620623
    160 O22        -0.8110   -1.1440   -0.1060 o         1 MOL     -0.620623
    161 H72        -5.4140    0.7850   -1.6540 hn        1 MOL      0.066494
    162 H73        -5.6080   -1.8640   -0.5750 h1        1 MOL      0.051292
    163 H74        -3.6810   -1.1650    0.9190 hc        1 MOL      0.158803
    164 H75        -3.6610    0.3890    0.0710 hc        1 MOL      0.158803
    165 H76        -3.3730   -0.8450   -2.0080 hc        1 MOL     -0.057411
    166 H77        -3.0150   -2.2610   -1.0880 hc        1 MOL     -0.057411
    167 N15        -6.6200    0.4810    1.5760 n         1 MOL     -0.112517
    168 C54        -7.4680    0.7290    2.7840 c3        1 MOL     -0.264396
    169 H78        -7.8890   -0.2140    3.1320 h1        1 MOL      0.110533
    170 H79        -6.8570    1.1670    3.5740 h1        1 MOL      0.110533
    171 H80        -8.2760    1.4150    2.5280 h1        1 MOL      0.110533
    172 H81        -6.3670    1.3150    1.0590 hn        1 MOL      0.090169
    173 Ca1         1.4000   -0.5150   -1.2780 Ca        1 MOL      1.781197
    174 O23         0.8540    2.1410   -2.3260 oh        1 MOL     -0.872551
    175 H82         0.9990    3.0810   -2.4080 ho        1 MOL      0.409210
    176 H83        -0.0950    2.0290   -2.3900 ho        1 MOL      0.409210
    177 O24         0.1360   -2.5050   -2.5070 oh        1 MOL     -0.872551
    178 H84        -0.6520   -2.2440   -2.9900 ho        1 MOL      0.409210
    179 H85         0.3970   -3.3320   -2.8980 ho        1 MOL      0.409210
    180 O25         1.4330   -0.3670   -3.9540 oh        1 MOL     -0.872551
    181 H86         1.1460   -0.0260   -4.7990 ho        1 MOL      0.409210
    182 H87         1.8970   -1.1740   -4.1640 ho        1 MOL      0.409210
@<TRIPOS>BOND
     1    1    2 1   
     2    1    4 1   
     3    1    5 1   
     4    1    6 1   
     5    2    3 2   
     6    2    7 1   
     7    7    8 1   
     8    7   15 1   
     9    8    9 1   
    10    8   11 1   
    11    8   16 1   
    12    9   10 2   
    13    9   19 1   
    14   11   12 1   
    15   11   17 1   
    16   11   18 1   
    17   12   13 1   
    18   12   14 1   
    19   19   20 1   
    20   19   28 1   
    21   20   21 1   
    22   20   23 1   
    23   20   29 1   
    24   21   22 2   
    25   21   41 1   
    26   23   24 1   
    27   23   30 1   
    28   23   31 1   
    29   24   25 1   
    30   24   32 1   
    31   24   33 1   
    32   25   26 1   
    33   25   34 1   
    34   25   35 1   
    35   26   27 1   
    36   26   36 1   
    37   26   37 1   
    38   27   38 1   
    39   27   39 1   
    40   27   40 1   
    41   41   42 1   
    42   41   49 1   
    43   42   43 1   
    44   42   45 1   
    45   42   50 1   
    46   43   44 2   
    47   43   53 1   
    48   45   46 1   
    49   45   51 1   
    50   45   52 1   
    51   46   47 1   
    52   46   48 1   
    53   53   54 1   
    54   53   57 1   
    55   54   55 1   
    56   54   58 1   
    57   54   59 1   
    58   55   56 2   
    59   55   60 1   
    60   60   61 1   
    61   60   68 1   
    62   61   62 1   
    63   61   64 1   
    64   61   69 1   
    65   62   63 2   
    66   62   74 1   
    67   64   65 1   
    68   64   70 1   
    69   64   71 1   
    70   65   66 1   
    71   65   67 2   
    72   66   72 1   
    73   66   73 1   
    74   74   75 1   
    75   74   78 1   
    76   75   76 1   
    77   75   79 1   
    78   75   80 1   
    79   76   77 2   
    80   76   81 1   
    81   81   82 1   
    82   81   93 1   
    83   82   83 1   
    84   82   85 1   
    85   82   94 1   
    86   83   84 2   
    87   83  102 1   
    88   85   86 1   
    89   85   95 1   
    90   85   96 1   
    91   86   87 ar  
    92   86   88 ar  
    93   87   89 ar  
    94   87   97 1   
    95   88   90 ar  
    96   88   98 1   
    97   89   91 ar  
    98   89   99 1   
    99   90   91 ar  
   100   90  100 1   
   101   91   92 1   
   102   92  101 1   
   103  102  103 1   
   104  102  110 1   
   105  103  104 1   
   106  103  106 1   
   107  103  111 1   
   108  104  105 2   
   109  104  121 1   
   110  106  107 1   
   111  106  108 1   
   112  106  112 1   
   113  107  109 1   
   114  107  113 1   
   115  107  114 1   
   116  108  115 1   
   117  108  116 1   
   118  108  117 1   
   119  109  118 1   
   120  109  119 1   
   121  109  120 1   
   122  121  122 1   
   123  121  127 1   
   124  122  123 1   
   125  122  125 1   
   126  122  128 1   
   127  123  124 2   
   128  123  132 1   
   129  125  126 1   
   130  125  129 1   
   131  125  130 1   
   132  126  131 1   
   133  132  133 1   
   134  132  137 1   
   135  133  134 1   
   136  133  136 1   
   137  133  138 1   
   138  134  135 2   
   139  134  142 1   
   140  136  139 1   
   141  136  140 1   
   142  136  141 1   
   143  142  143 1   
   144  142  147 1   
   145  143  144 1   
   146  143  146 1   
   147  143  148 1   
   148  144  145 2   
   149  144  152 1   
   150  146  149 1   
   151  146  150 1   
   152  146  151 1   
   153  152  153 1   
   154  152  161 1   
   155  153  154 1   
   156  153  156 1   
   157  153  162 1   
   158  154  155 2   
   159  154  167 1   
   160  156  157 1   
   161  156  163 1   
   162  156  164 1   
   163  157  158 1   
   164  157  165 1   
   165  157  166 1   
   166  158  159 1   
   167  158  160 1   
   168  167  168 1   
   169  167  172 1   
   170  168  169 1   
   171  168  170 1   
   172  168  171 1   
   173  174  175 1   
   174  174  176 1   
   175  177  178 1   
   176  177  179 1   
   177  180  181 1   
   178  180  182 1   
@<TRIPOS>SUBSTRUCTURE
     1 MOL         1 TEMP              0 ****  ****    0 ROOT
