@<TRIPOS>MOLECULE
MOL
  175   173     1     0     0
SMALL
resp


@<TRIPOS>ATOM
      1 C1         -0.4790    3.4590    5.7220 c3        1 MOL     -0.338897
      2 C2         -0.8760    3.0130    4.2760 c         1 MOL      0.840428
      3 O1         -0.1280    3.2810    3.3700 o         1 MOL     -0.639803
      4 H1         -0.6770    2.6460    6.4200 hc        1 MOL      0.076927
      5 H2          0.5820    3.7080    5.7470 hc        1 MOL      0.076927
      6 H3         -1.0650    4.3330    6.0070 hc        1 MOL      0.076927
      7 N1         -2.0200    2.3550    4.0400 n         1 MOL     -0.753183
      8 C3         -2.4210    2.0420    2.6940 c3        1 MOL      0.255034
      9 C4         -2.7140    3.4020    1.9750 c         1 MOL      0.469490
     10 O2         -3.7110    4.1090    2.2500 o         1 MOL     -0.608189
     11 C5         -3.6130    1.1210    2.6990 c3        1 MOL     -0.056993
     12 C6         -4.1540    0.8000    1.2860 c         1 MOL      0.545594
     13 O3         -5.1550    0.0390    1.1690 o         1 MOL     -0.660339
     14 O4         -3.5890    1.2410    0.2880 o         1 MOL     -0.660339
     15 H4         -2.6150    2.0610    4.8040 hn        1 MOL      0.338216
     16 H5         -1.6350    1.4620    2.2100 h1        1 MOL     -0.045247
     17 H6         -4.4070    1.5370    3.3250 hc        1 MOL      0.032763
     18 H7         -3.4770    0.2320    3.3260 hc        1 MOL      0.032763
     19 N2         -1.8830    3.8150    1.0290 n         1 MOL     -0.161456
     20 C7         -1.9700    5.0660    0.1900 c3        1 MOL     -0.097482
     21 C8         -3.1840    5.0990   -0.7940 c         1 MOL      0.660696
     22 O5         -3.5210    6.1680   -1.2850 o         1 MOL     -0.602480
     23 C9         -0.6630    5.2460   -0.6260 c3        1 MOL     -0.114631
     24 H8         -1.1420    3.1490    0.8360 hn        1 MOL      0.261058
     25 H9         -2.0630    5.9100    0.8740 h1        1 MOL      0.079353
     26 H10        -0.7530    6.0950   -1.3130 hc        1 MOL      0.045149
     27 H11         0.1980    5.4800    0.0030 hc        1 MOL      0.045149
     28 H12        -0.3570    4.3740   -1.1990 hc        1 MOL      0.045149
     29 N3         -3.8870    3.9770   -1.0450 n         1 MOL     -0.401402
     30 C10        -4.9290    3.9110   -2.0950 c3        1 MOL     -0.034541
     31 C11        -6.1890    3.0100   -1.8040 c         1 MOL      0.471590
     32 O6         -7.0770    2.9350   -2.6320 o         1 MOL     -0.513644
     33 C12        -4.1500    3.3370   -3.3590 c3        1 MOL     -0.189898
     34 C13        -3.4720    1.9970   -3.0900 c         1 MOL      0.734296
     35 O7         -4.1240    0.9190   -3.1150 o         1 MOL     -0.716796
     36 O8         -2.3040    1.9700   -2.7760 o         1 MOL     -0.716796
     37 H13        -3.5570    3.1540   -0.5570 hn        1 MOL      0.133015
     38 H14        -5.2810    4.8950   -2.4120 h1        1 MOL      0.121787
     39 H15        -3.3930    4.0270   -3.7160 hc        1 MOL      0.048828
     40 H16        -4.8220    3.0790   -4.1830 hc        1 MOL      0.048828
     41 N4         -6.1440    2.2610   -0.6600 n         1 MOL     -0.304803
     42 C14        -7.4200    1.6910   -0.0450 c3        1 MOL     -0.226962
     43 C15        -7.8280    0.4240   -0.7190 c         1 MOL      0.545024
     44 O9         -8.9910    0.0220   -0.6870 o         1 MOL     -0.605871
     45 H17        -5.2300    2.0460   -0.2820 hn        1 MOL      0.325745
     46 H18        -8.2300    2.3620   -0.2900 h1        1 MOL      0.128344
     47 H19        -7.4050    1.5180    1.0330 h1        1 MOL      0.128344
     48 N5         -6.9350   -0.3230   -1.3940 n         1 MOL     -0.172589
     49 C16        -7.2560   -1.7250   -1.8400 c3        1 MOL      0.008287
     50 C17        -7.2300   -2.7720   -0.7060 c         1 MOL      0.411481
     51 O10        -7.7040   -3.8840   -0.8220 o         1 MOL     -0.558562
     52 C18        -6.2890   -2.1980   -2.9340 c3        1 MOL     -0.295295
     53 C19        -4.8250   -2.3340   -2.4580 c         1 MOL      0.598712
     54 N6         -3.9970   -2.8820   -3.2990 n         1 MOL     -0.664739
     55 O11        -4.3370   -1.8040   -1.4250 o         1 MOL     -0.509575
     56 H20        -5.9850    0.0220   -1.4200 hn        1 MOL      0.095969
     57 H21        -8.2520   -1.8600   -2.2580 h1        1 MOL      0.106833
     58 H22        -6.3950   -1.5110   -3.7740 hc        1 MOL      0.107628
     59 H23        -6.5470   -3.2410   -3.1480 hc        1 MOL      0.107628
     60 H24        -4.4650   -3.2030   -4.1360 hn        1 MOL      0.315512
     61 H25        -3.0230   -2.9730   -3.0260 hn        1 MOL      0.315512
     62 N7         -6.6320   -2.4610    0.4400 n         1 MOL     -0.073411
     63 C20        -6.5340   -3.3130    1.5840 c3        1 MOL     -0.171033
     64 C21        -5.1840   -3.6330    2.2430 c         1 MOL      0.477138
     65 O12        -5.0790   -4.1350    3.3940 o         1 MOL     -0.579748
     66 H26        -6.3860   -1.5100    0.6780 hn        1 MOL      0.211146
     67 H27        -6.9340   -4.2950    1.3640 h1        1 MOL      0.086620
     68 H28        -7.2070   -2.8590    2.3140 h1        1 MOL      0.086620
     69 N8         -4.0830   -3.3250    1.5880 n         1 MOL     -0.110558
     70 C22        -2.7410   -3.6620    2.0380 c3        1 MOL     -0.171753
     71 C23        -1.7770   -2.5480    1.6890 c         1 MOL      0.545636
     72 O13        -2.1080   -1.5550    0.9850 o         1 MOL     -0.557761
     73 C24        -2.3140   -4.9670    1.3530 c3        1 MOL      0.412817
     74 C25        -3.1460   -6.2140    1.7400 c3        1 MOL     -0.451038
     75 O14        -2.2090   -4.8300    0.0000 oh        1 MOL     -0.617923
     76 H29        -4.1670   -2.8200    0.7140 hn        1 MOL      0.075055
     77 H30        -2.8350   -3.8660    3.1050 h1        1 MOL      0.104352
     78 H31        -1.3070   -5.1470    1.7140 h1        1 MOL      0.016795
     79 H32        -3.0930   -5.0250   -0.3310 ho        1 MOL      0.374332
     80 H33        -3.1320   -6.3220    2.8210 hc        1 MOL      0.117869
     81 H34        -4.1970   -6.1370    1.4490 hc        1 MOL      0.117869
     82 H35        -2.6790   -7.1170    1.3530 hc        1 MOL      0.117869
     83 N9         -0.5370   -2.6670    2.1760 n         1 MOL     -0.182885
     84 C26         0.6530   -1.9050    1.7470 c3        1 MOL     -0.182617
     85 C27         1.7190   -2.6700    0.8310 c         1 MOL      0.597690
     86 O15         2.0940   -3.7590    1.1710 o         1 MOL     -0.583993
     87 C28         1.3020   -1.2600    2.9390 c3        1 MOL      0.154552
     88 C29         1.8710   -2.2070    4.0460 c3        1 MOL      0.097323
     89 C30         0.2930   -0.2550    3.4670 c3        1 MOL     -0.160801
     90 C31         2.2850   -1.5790    5.3970 c3        1 MOL     -0.312784
     91 H36        -0.4410   -3.3890    2.8760 hn        1 MOL      0.171635
     92 H37         0.2790   -1.0230    1.2340 h1        1 MOL      0.086347
     93 H38         2.1540   -0.7050    2.5260 hc        1 MOL     -0.116138
     94 H39         2.7730   -2.7140    3.7020 hc        1 MOL      0.001075
     95 H40         1.1980   -3.0240    4.3310 hc        1 MOL      0.001075
     96 H41        -0.6460   -0.7770    3.6740 hc        1 MOL      0.027787
     97 H42         0.6550    0.2900    4.3460 hc        1 MOL      0.027787
     98 H43         0.0850    0.5230    2.7320 hc        1 MOL      0.027787
     99 H44         3.0940   -2.1270    5.8800 hc        1 MOL      0.072516
    100 H45         2.7660   -0.6670    5.0280 hc        1 MOL      0.072516
    101 H46         1.4720   -1.3790    6.0920 hc        1 MOL      0.072516
    102 N10         2.0370   -2.0700   -0.3330 n         1 MOL     -0.356311
    103 C32         3.2080   -2.3400   -1.1600 c3        1 MOL      0.145848
    104 C33         4.4270   -1.7050   -0.4630 c         1 MOL      0.410960
    105 O16         4.3290   -0.8480    0.4120 o         1 MOL     -0.413275
    106 C34         2.8450   -1.9740   -2.5680 c3        1 MOL     -0.039690
    107 C35         3.7970   -2.3860   -3.6760 c         1 MOL      0.641602
    108 O17         3.5000   -2.0820   -4.8230 o         1 MOL     -0.703617
    109 O18         4.9140   -2.9080   -3.4740 o         1 MOL     -0.703617
    110 H47         1.7190   -1.1180   -0.4210 hn        1 MOL      0.060786
    111 H48         3.4230   -3.3990   -1.2780 h1        1 MOL      0.030719
    112 H49         2.8010   -0.8890   -2.5660 hc        1 MOL      0.016288
    113 H50         1.9100   -2.4420   -2.8720 hc        1 MOL      0.016288
    114 N11         5.5720   -2.0720   -0.9940 n         1 MOL     -0.483418
    115 C36         6.8570   -1.4110   -0.6040 c3        1 MOL      0.245314
    116 C37         6.8660    0.1280   -0.6480 c         1 MOL      0.466591
    117 O19         7.0270    0.6250    0.4570 o         1 MOL     -0.554669
    118 C38         7.9870   -2.1270   -1.2920 c3        1 MOL     -0.264065
    119 C39         9.3030   -1.5090   -0.8710 ca        1 MOL      0.001823
    120 C40         9.7210   -1.7140    0.4360 ca        1 MOL     -0.040950
    121 C41        10.1870   -0.8720   -1.7360 ca        1 MOL     -0.040950
    122 C42        10.9500   -1.2700    0.8960 ca        1 MOL     -0.220465
    123 C43        11.3600   -0.2530   -1.2650 ca        1 MOL     -0.220465
    124 C44        11.6970   -0.4230    0.0610 ca        1 MOL     -0.027927
    125 H51         5.6000   -2.8640   -1.6220 hn        1 MOL      0.260315
    126 H52         6.8770   -1.5770    0.4680 h1        1 MOL      0.059072
    127 H53         7.7820   -2.0730   -2.3620 hc        1 MOL      0.101484
    128 H54         7.9220   -3.1660   -0.9950 hc        1 MOL      0.101484
    129 H55         9.0600   -2.3190    1.0390 ha        1 MOL      0.084393
    130 H56        10.0140   -0.8230   -2.8000 ha        1 MOL      0.084393
    131 H57        11.1120   -1.3090    1.9610 ha        1 MOL      0.128852
    132 H58        11.9150    0.3330   -1.9890 ha        1 MOL      0.128852
    133 H59        12.5050    0.1850    0.4510 ha        1 MOL      0.082528
    134 N12         6.6110    0.8930   -1.6780 n         1 MOL     -0.161728
    135 C45         6.3870    2.3280   -1.5560 c3        1 MOL      0.084624
    136 C46         5.4830    2.7930   -0.3940 c         1 MOL      0.241840
    137 O20         5.6130    3.9570    0.0250 o         1 MOL     -0.529727
    138 C47         5.6380    2.6760   -2.8550 c3        1 MOL     -0.242807
    139 C48         6.3760    1.6760   -3.8120 c3        1 MOL     -0.063709
    140 C49         6.3150    0.4380   -3.0050 c3        1 MOL     -0.066006
    141 H60         7.3460    2.8330   -1.5110 h1        1 MOL      0.071137
    142 H61         4.6200    2.3310   -2.7460 hc        1 MOL      0.117495
    143 H62         5.7450    3.7040   -3.2170 hc        1 MOL      0.117495
    144 H63         5.8870    1.5380   -4.7770 hc        1 MOL      0.038477
    145 H64         7.4460    1.8410   -3.9430 hc        1 MOL      0.038477
    146 H65         5.3210    0.0060   -3.1040 h1        1 MOL      0.100495
    147 H66         7.1670   -0.1390   -3.3510 h1        1 MOL      0.100495
    148 N13         4.6160    1.9480    0.1300 n         1 MOL     -0.009494
    149 C50         3.7430    2.3290    1.2930 c3        1 MOL     -0.134968
    150 C51         4.2760    1.8070    2.6380 c         1 MOL      0.490591
    151 O21         4.1030    2.4990    3.6090 o         1 MOL     -0.570005
    152 C52         2.3310    1.7870    0.9810 c3        1 MOL      0.006569
    153 C53         1.6400    2.2450   -0.2780 c3        1 MOL     -0.002740
    154 C54         0.4830    1.3950   -0.6450 c         1 MOL      0.687147
    155 O22         0.5400    0.4870   -1.4940 o         1 MOL     -0.700846
    156 O23        -0.5600    1.5250   -0.0310 o         1 MOL     -0.700846
    157 H67         4.5520    1.0160   -0.2600 hn        1 MOL      0.158127
    158 H68         3.7890    3.4170    1.3630 h1        1 MOL      0.112087
    159 H69         1.6580    2.0130    1.8030 hc        1 MOL      0.116801
    160 H70         2.4560    0.7030    0.9320 hc        1 MOL      0.116801
    161 H71         2.3660    2.3250   -1.1010 hc        1 MOL     -0.030396
    162 H72         1.3410    3.2630   -0.0500 hc        1 MOL     -0.030396
    163 N14         5.0870    0.7430    2.6710 n         1 MOL     -0.010897
    164 C55         5.8090    0.3250    3.8790 c3        1 MOL     -0.178184
    165 H73         5.5020   -0.6840    4.1550 h1        1 MOL      0.065873
    166 H74         6.8820    0.3370    3.6850 h1        1 MOL      0.065873
    167 H75         5.5790    1.0100    4.6950 h1        1 MOL      0.065873
    168 H76         5.3200    0.2570    1.8190 hn        1 MOL      0.065697
    169 Ca1        -2.1970   -0.1430   -1.3140 Ca        1 MOL      1.735902
    170 O24        -1.3390   -0.8250   -3.7020 oh        1 MOL     -0.816275
    171 H77        -0.3900   -0.9090   -3.7690 ho        1 MOL      0.400624
    172 H78        -1.6670   -1.2810   -4.4790 ho        1 MOL      0.400624
    173 O25        -1.4140   -2.7730   -1.7580 oh        1 MOL     -0.816275
    174 H79        -1.3910   -3.4990   -1.1330 ho        1 MOL      0.400624
    175 H80        -1.1660   -3.1760   -2.5880 ho        1 MOL      0.400624
@<TRIPOS>BOND
     1    1    2 1   
     2    1    4 1   
     3    1    5 1   
     4    1    6 1   
     5    2    3 2   
     6    2    7 1   
     7    7    8 1   
     8    7   15 1   
     9    8    9 1   
    10    8   11 1   
    11    8   16 1   
    12    9   10 2   
    13    9   19 1   
    14   11   12 1   
    15   11   17 1   
    16   11   18 1   
    17   12   13 1   
    18   12   14 1   
    19   19   20 1   
    20   19   24 1   
    21   20   21 1   
    22   20   23 1   
    23   20   25 1   
    24   21   22 2   
    25   21   29 1   
    26   23   26 1   
    27   23   27 1   
    28   23   28 1   
    29   29   30 1   
    30   29   37 1   
    31   30   31 1   
    32   30   33 1   
    33   30   38 1   
    34   31   32 2   
    35   31   41 1   
    36   33   34 1   
    37   33   39 1   
    38   33   40 1   
    39   34   35 1   
    40   34   36 1   
    41   41   42 1   
    42   41   45 1   
    43   42   43 1   
    44   42   46 1   
    45   42   47 1   
    46   43   44 2   
    47   43   48 1   
    48   48   49 1   
    49   48   56 1   
    50   49   50 1   
    51   49   52 1   
    52   49   57 1   
    53   50   51 2   
    54   50   62 1   
    55   52   53 1   
    56   52   58 1   
    57   52   59 1   
    58   53   54 1   
    59   53   55 2   
    60   54   60 1   
    61   54   61 1   
    62   62   63 1   
    63   62   66 1   
    64   63   64 1   
    65   63   67 1   
    66   63   68 1   
    67   64   65 2   
    68   64   69 1   
    69   69   70 1   
    70   69   76 1   
    71   70   71 1   
    72   70   73 1   
    73   70   77 1   
    74   71   72 2   
    75   71   83 1   
    76   73   74 1   
    77   73   75 1   
    78   73   78 1   
    79   74   80 1   
    80   74   81 1   
    81   74   82 1   
    82   75   79 1   
    83   83   84 1   
    84   83   91 1   
    85   84   85 1   
    86   84   87 1   
    87   84   92 1   
    88   85   86 2   
    89   85  102 1   
    90   87   88 1   
    91   87   89 1   
    92   87   93 1   
    93   88   90 1   
    94   88   94 1   
    95   88   95 1   
    96   89   96 1   
    97   89   97 1   
    98   89   98 1   
    99   90   99 1   
   100   90  100 1   
   101   90  101 1   
   102  102  103 1   
   103  102  110 1   
   104  103  104 1   
   105  103  106 1   
   106  103  111 1   
   107  104  105 2   
   108  104  114 1   
   109  106  107 1   
   110  106  112 1   
   111  106  113 1   
   112  107  108 1   
   113  107  109 1   
   114  114  115 1   
   115  114  125 1   
   116  115  116 1   
   117  115  118 1   
   118  115  126 1   
   119  116  117 2   
   120  116  134 1   
   121  118  119 1   
   122  118  127 1   
   123  118  128 1   
   124  119  120 ar  
   125  119  121 ar  
   126  120  122 ar  
   127  120  129 1   
   128  121  123 ar  
   129  121  130 1   
   130  122  124 ar  
   131  122  131 1   
   132  123  124 ar  
   133  123  132 1   
   134  124  133 1   
   135  134  135 1   
   136  134  140 1   
   137  135  136 1   
   138  135  138 1   
   139  135  141 1   
   140  136  137 2   
   141  136  148 1   
   142  138  139 1   
   143  138  142 1   
   144  138  143 1   
   145  139  140 1   
   146  139  144 1   
   147  139  145 1   
   148  140  146 1   
   149  140  147 1   
   150  148  149 1   
   151  148  157 1   
   152  149  150 1   
   153  149  152 1   
   154  149  158 1   
   155  150  151 2   
   156  150  163 1   
   157  152  153 1   
   158  152  159 1   
   159  152  160 1   
   160  153  154 1   
   161  153  161 1   
   162  153  162 1   
   163  154  155 1   
   164  154  156 1   
   165  163  164 1   
   166  163  168 1   
   167  164  165 1   
   168  164  166 1   
   169  164  167 1   
   170  170  171 1   
   171  170  172 1   
   172  173  174 1   
   173  173  175 1   
@<TRIPOS>SUBSTRUCTURE
     1 MOL         1 TEMP              0 ****  ****    0 ROOT
