@<TRIPOS>MOLECULE
MOL
  182   178     1     0     0
SMALL
resp


@<TRIPOS>ATOM
      1 C1         -1.4740   -3.0480    6.0260 c3        1 MOL     -0.322181
      2 C2         -1.0890   -2.4390    4.6130 c         1 MOL      0.664210
      3 O1         -1.9360   -1.9020    3.9140 o         1 MOL     -0.594950
      4 H1         -0.5660   -3.2380    6.5980 hc        1 MOL      0.089161
      5 H2         -2.1030   -2.3410    6.5680 hc        1 MOL      0.089161
      6 H3         -2.0160   -3.9840    5.8840 hc        1 MOL      0.089161
      7 N1          0.1680   -2.5770    4.1820 n         1 MOL     -0.554945
      8 C3          0.6010   -2.1860    2.8390 c3        1 MOL     -0.028237
      9 C4          0.9570   -3.5310    2.1470 c         1 MOL      0.509139
     10 O2          1.8550   -4.3230    2.6170 o         1 MOL     -0.507513
     11 C5          1.8110   -1.2430    3.0220 c3        1 MOL     -0.155650
     12 C6          2.6210   -0.9350    1.7970 c         1 MOL      0.602571
     13 O3          2.2970   -1.3150    0.6560 o         1 MOL     -0.684083
     14 O4          3.7440   -0.2970    1.9680 o         1 MOL     -0.684083
     15 H4          0.8430   -2.9870    4.8170 hn        1 MOL      0.337855
     16 H5         -0.1970   -1.6870    2.2940 h1        1 MOL      0.088966
     17 H6          2.4150   -1.7250    3.7830 hc        1 MOL      0.081069
     18 H7          1.5310   -0.3300    3.5580 hc        1 MOL      0.081069
     19 N2          0.1220   -3.9500    1.1380 n         1 MOL     -0.309807
     20 C7          0.1320   -5.2970    0.6180 c3        1 MOL     -0.157554
     21 C8          1.4030   -5.7220   -0.1350 c         1 MOL      0.446649
     22 O5          1.7970   -6.8960   -0.2090 o         1 MOL     -0.528006
     23 C9         -1.1850   -5.5720   -0.1710 c3        1 MOL      0.006453
     24 C10        -2.5010   -5.3280    0.6300 c3        1 MOL     -0.007027
     25 C11        -3.7030   -5.8980   -0.1030 c3        1 MOL      0.058385
     26 C12        -3.9650   -5.4340   -1.5810 c3        1 MOL      0.044437
     27 N3         -4.9090   -6.4090   -2.2630 n4        1 MOL     -0.370469
     28 H8         -0.5400   -3.2710    0.7970 hn        1 MOL      0.291527
     29 H9          0.0170   -5.8870    1.5330 h1        1 MOL      0.124999
     30 H10        -1.1310   -6.5740   -0.5960 hc        1 MOL      0.005607
     31 H11        -1.1630   -4.8520   -0.9870 hc        1 MOL      0.005607
     32 H12        -2.6700   -4.2840    0.8790 hc        1 MOL      0.047656
     33 H13        -2.3820   -5.9160    1.5360 hc        1 MOL      0.047656
     34 H14        -4.5720   -5.6090    0.4890 hc        1 MOL      0.009178
     35 H15        -3.7230   -6.9760    0.0700 hc        1 MOL      0.009178
     36 H16        -3.0210   -5.3590   -2.1320 hx        1 MOL      0.066133
     37 H17        -4.2970   -4.4090   -1.4830 hx        1 MOL      0.066133
     38 H18        -5.2160   -5.9240   -3.0880 hn        1 MOL      0.333217
     39 H19        -4.6160   -7.3550   -2.4850 hn        1 MOL      0.333217
     40 H20        -5.7370   -6.5050   -1.7000 hn        1 MOL      0.333217
     41 N4          2.0410   -4.7510   -0.7960 n         1 MOL     -0.284649
     42 C13         3.3360   -4.9730   -1.5130 c3        1 MOL      0.053172
     43 C14         4.5080   -4.5000   -0.7100 c         1 MOL      0.373990
     44 O6          5.7030   -4.7590   -1.0350 o         1 MOL     -0.542769
     45 C15         3.3450   -4.3960   -2.9060 c3        1 MOL     -0.302803
     46 C16         2.9840   -2.9460   -2.9890 c         1 MOL      0.751315
     47 O7          2.8440   -2.2220   -1.9670 o         1 MOL     -0.712311
     48 O8          2.9010   -2.3630   -4.0550 o         1 MOL     -0.712311
     49 H21         1.7190   -3.7970   -0.8480 hn        1 MOL      0.270325
     50 H22         3.4520   -6.0410   -1.7010 h1        1 MOL      0.112352
     51 H23         2.6840   -4.9900   -3.5450 hc        1 MOL      0.096252
     52 H24         4.3730   -4.5270   -3.2540 hc        1 MOL      0.096252
     53 N5          4.2850   -3.7750    0.3920 n         1 MOL     -0.048558
     54 C17         5.3150   -3.2940    1.2400 c3        1 MOL     -0.294854
     55 C18         6.1090   -2.1480    0.5460 c         1 MOL      0.577869
     56 O9          7.1850   -1.7980    1.0370 o         1 MOL     -0.564258
     57 H25         3.3550   -3.3820    0.5020 hn        1 MOL      0.092265
     58 H26         6.0880   -3.9960    1.5520 h1        1 MOL      0.133715
     59 H27         4.8370   -2.8950    2.1380 h1        1 MOL      0.133715
     60 N6          5.5510   -1.6320   -0.5540 n         1 MOL     -0.306224
     61 C19         6.2310   -0.5940   -1.3440 c3        1 MOL     -0.233771
     62 C20         6.4410    0.7330   -0.6500 c         1 MOL      0.426258
     63 O10         7.2480    1.5730   -1.0390 o         1 MOL     -0.530487
     64 C21         5.4820   -0.4710   -2.6530 c3        1 MOL     -0.043648
     65 C22         4.3980    0.6020   -2.6700 c         1 MOL      0.698324
     66 N7          4.4590    1.3680   -3.7170 n         1 MOL     -0.684006
     67 O11         3.6210    0.7450   -1.7300 o         1 MOL     -0.732120
     68 H28         4.6420   -1.9420   -0.8640 hn        1 MOL      0.340285
     69 H29         7.1980   -0.9600   -1.6980 h1        1 MOL      0.167028
     70 H30         5.1630   -1.4310   -3.0520 hc        1 MOL      0.053421
     71 H31         6.2620   -0.1830   -3.3640 hc        1 MOL      0.053421
     72 H32         5.0130    1.2230   -4.5430 hn        1 MOL      0.344095
     73 H33         3.8940    2.2000   -3.5800 hn        1 MOL      0.344095
     74 N8          5.7920    0.9580    0.5410 n         1 MOL     -0.046235
     75 C23         6.0990    2.1220    1.3860 c3        1 MOL     -0.359011
     76 C24         4.8850    2.9630    1.8150 c         1 MOL      0.599440
     77 O12         5.0470    4.0030    2.4380 o         1 MOL     -0.554070
     78 H34         5.1220    0.3090    0.9190 hn        1 MOL      0.246514
     79 H35         6.8370    2.7900    0.9360 h1        1 MOL      0.151784
     80 H36         6.5190    1.7730    2.3300 h1        1 MOL      0.151784
     81 N9          3.7310    2.5520    1.3640 n         1 MOL     -0.463039
     82 C25         2.4700    3.3590    1.3530 c3        1 MOL      0.065480
     83 C26         1.2280    2.5170    1.2430 c         1 MOL      0.526902
     84 O13         1.1380    1.5520    0.4410 o         1 MOL     -0.549749
     85 C27         2.4220    4.1760    0.0800 c3        1 MOL      0.134334
     86 C28         3.6280    5.1240   -0.0090 ca        1 MOL     -0.089276
     87 C29         4.7190    4.6810   -0.7940 ca        1 MOL     -0.197763
     88 C30         3.6710    6.4090    0.6290 ca        1 MOL     -0.197763
     89 C31         5.8260    5.5400   -0.9140 ca        1 MOL     -0.190705
     90 C32         4.7380    7.2720    0.4320 ca        1 MOL     -0.190705
     91 C33         5.8360    6.8600   -0.3710 ca        1 MOL      0.349743
     92 O14         6.7460    7.7550   -0.7470 oh        1 MOL     -0.509297
     93 H37         3.7470    1.6280    0.9400 hn        1 MOL      0.292885
     94 H38         2.3990    4.0800    2.1720 h1        1 MOL      0.085912
     95 H39         1.5010    4.7550    0.1080 hc        1 MOL      0.000712
     96 H40         2.3840    3.6200   -0.8550 hc        1 MOL      0.000712
     97 H41         4.7600    3.7030   -1.2480 ha        1 MOL      0.147011
     98 H42         2.8990    6.7370    1.3210 ha        1 MOL      0.147011
     99 H43         6.5330    5.2420   -1.6760 ha        1 MOL      0.120981
    100 H44         4.7550    8.2550    0.8780 ha        1 MOL      0.120981
    101 H45         6.6190    8.6220   -0.3480 ho        1 MOL      0.377285
    102 N10         0.1510    3.0610    1.8980 n         1 MOL     -0.548976
    103 C34        -1.1640    2.5770    1.8360 c3        1 MOL     -0.045444
    104 C35        -1.9500    3.5030    0.9540 c         1 MOL      0.625944
    105 O15        -2.2480    4.6530    1.3670 o         1 MOL     -0.565813
    106 C36        -1.7380    2.4160    3.2750 c3        1 MOL     -0.012090
    107 C37        -0.8170    1.3970    4.0840 c3        1 MOL      0.060212
    108 C38        -3.1570    1.8140    3.2420 c3        1 MOL     -0.149411
    109 C39        -1.2160    1.2550    5.5830 c3        1 MOL     -0.417569
    110 H46         0.3740    3.8260    2.5090 hn        1 MOL      0.321699
    111 H47        -1.1550    1.6070    1.3340 h1        1 MOL      0.113880
    112 H48        -1.7870    3.4010    3.7510 hc        1 MOL      0.057848
    113 H49         0.2490    1.6330    4.0610 hc        1 MOL      0.044126
    114 H50        -0.9190    0.4000    3.6500 hc        1 MOL      0.044126
    115 H51        -3.8690    2.5190    2.8200 hc        1 MOL      0.042355
    116 H52        -3.2090    0.8820    2.6740 hc        1 MOL      0.042355
    117 H53        -3.5640    1.6190    4.2390 hc        1 MOL      0.042355
    118 H54        -0.4870    0.6970    6.1790 hc        1 MOL      0.109930
    119 H55        -1.4810    2.1930    6.0780 hc        1 MOL      0.109930
    120 H56        -2.1160    0.6450    5.5710 hc        1 MOL      0.109930
    121 N11        -2.4180    2.9710   -0.1670 n         1 MOL     -0.351370
    122 C40        -3.2910    3.5090   -1.2030 c3        1 MOL     -0.195103
    123 C41        -4.7400    3.2720   -0.8660 c         1 MOL      0.503279
    124 O16        -5.1690    2.3030   -0.2300 o         1 MOL     -0.368550
    125 C42        -2.9280    2.9100   -2.5680 c3        1 MOL      0.110722
    126 O17        -3.0810    1.5060   -2.7260 oh        1 MOL     -0.603338
    127 H57        -2.0900    2.0370   -0.3800 hn        1 MOL      0.285854
    128 H58        -3.2200    4.5900   -1.3250 h1        1 MOL      0.099244
    129 H59        -1.9020    3.1880   -2.7880 h1        1 MOL      0.073479
    130 H60        -3.4130    3.4450   -3.3790 h1        1 MOL      0.073479
    131 H61        -2.4020    1.0990   -2.1740 ho        1 MOL      0.386913
    132 N12        -5.6390    3.9970   -1.5040 n         1 MOL     -0.428542
    133 C43        -7.1440    3.9870   -1.1970 c3        1 MOL      0.156637
    134 C44        -7.8590    2.6320   -1.4190 c         1 MOL      0.392021
    135 O18        -8.8220    2.2710   -0.6860 o         1 MOL     -0.505542
    136 C45        -7.7610    5.0900   -2.0050 c3        1 MOL     -0.452696
    137 H62        -5.2450    4.7460   -2.0610 hn        1 MOL      0.276455
    138 H63        -7.2350    4.1740   -0.1290 h1        1 MOL      0.093471
    139 H64        -8.7970    5.1630   -1.6620 hc        1 MOL      0.137659
    140 H65        -7.1680    5.9480   -1.6940 hc        1 MOL      0.137659
    141 H66        -7.7760    4.9720   -3.0910 hc        1 MOL      0.137659
    142 N13        -7.4100    1.8740   -2.4030 n         1 MOL     -0.261826
    143 C46        -7.6890    0.4510   -2.5880 c3        1 MOL      0.102217
    144 C47        -7.2070   -0.4070   -1.3980 c         1 MOL      0.334760
    145 O19        -7.9670   -1.3260   -1.0690 o         1 MOL     -0.521966
    146 C48        -6.9820    0.0510   -3.8720 c3        1 MOL     -0.227862
    147 H67        -6.8720    2.4430   -3.0550 hn        1 MOL      0.208422
    148 H68        -8.7630    0.3530   -2.7380 h1        1 MOL      0.089134
    149 H69        -7.3120    0.7490   -4.6420 hc        1 MOL      0.063982
    150 H70        -5.9030    0.0390   -3.7220 hc        1 MOL      0.063982
    151 H71        -7.2410   -0.9500   -4.2230 hc        1 MOL      0.063982
    152 N14        -6.0580   -0.1630   -0.7800 n         1 MOL     -0.067207
    153 C49        -5.4580   -0.9140    0.4060 c3        1 MOL     -0.337236
    154 C50        -6.1970   -0.4770    1.7370 c         1 MOL      0.519743
    155 O20        -6.5540   -1.3170    2.5610 o         1 MOL     -0.550565
    156 C51        -3.9730   -0.6980    0.5520 c3        1 MOL      0.093842
    157 C52        -3.0870   -1.2690   -0.5710 c3        1 MOL      0.076044
    158 C53        -1.6400   -0.7880   -0.5710 c         1 MOL      0.593764
    159 O21        -0.7970   -1.5860   -0.1930 o         1 MOL     -0.699503
    160 O22        -1.3010    0.3040   -1.1010 o         1 MOL     -0.699503
    161 H72        -5.5600    0.6200   -1.1880 hn        1 MOL      0.154969
    162 H73        -5.7590   -1.9610    0.3160 h1        1 MOL      0.138114
    163 H74        -3.6580   -1.1260    1.5050 hc        1 MOL      0.045145
    164 H75        -3.7720    0.3710    0.5810 hc        1 MOL      0.045145
    165 H76        -3.4760   -0.8780   -1.5070 hc        1 MOL     -0.052229
    166 H77        -3.2120   -2.3540   -0.5930 hc        1 MOL     -0.052229
    167 N15        -6.6260    0.7760    1.9070 n         1 MOL     -0.018749
    168 C54        -7.1230    1.3890    3.0950 c3        1 MOL     -0.341002
    169 H78        -6.5190    1.0740    3.9460 h1        1 MOL      0.123169
    170 H79        -7.0700    2.4730    2.9950 h1        1 MOL      0.123169
    171 H80        -8.1590    1.0890    3.2530 h1        1 MOL      0.123169
    172 H81        -6.3810    1.3730    1.1340 hn        1 MOL      0.065421
    173 Ca1         1.1480   -0.2820   -1.4320 Ca        1 MOL      1.788999
    174 O23         1.7110   -0.1080   -4.1810 oh        1 MOL     -0.892043
    175 O24         0.1490   -2.5040   -2.7840 oh        1 MOL     -0.892043
    176 H82         1.1610   -0.0760   -4.9620 ho        1 MOL      0.414952
    177 H83        -0.5260   -3.1610   -2.6050 ho        1 MOL      0.414952
    178 H84         2.1600   -0.9480   -4.2300 ho        1 MOL      0.414952
    179 H85         0.2180   -2.4860   -3.7370 ho        1 MOL      0.414952
    180 O25         1.0110    2.1910   -2.5820 oh        1 MOL     -0.892043
    181 H86         1.8270    2.6660   -2.5070 ho        1 MOL      0.414952
    182 H87         0.8470    2.1260   -3.5260 ho        1 MOL      0.414952
@<TRIPOS>BOND
     1    1    2 1   
     2    1    4 1   
     3    1    5 1   
     4    1    6 1   
     5    2    3 2   
     6    2    7 1   
     7    7    8 1   
     8    7   15 1   
     9    8    9 1   
    10    8   11 1   
    11    8   16 1   
    12    9   10 2   
    13    9   19 1   
    14   11   12 1   
    15   11   17 1   
    16   11   18 1   
    17   12   13 1   
    18   12   14 1   
    19   19   20 1   
    20   19   28 1   
    21   20   21 1   
    22   20   23 1   
    23   20   29 1   
    24   21   22 2   
    25   21   41 1   
    26   23   24 1   
    27   23   30 1   
    28   23   31 1   
    29   24   25 1   
    30   24   32 1   
    31   24   33 1   
    32   25   26 1   
    33   25   34 1   
    34   25   35 1   
    35   26   27 1   
    36   26   36 1   
    37   26   37 1   
    38   27   38 1   
    39   27   39 1   
    40   27   40 1   
    41   41   42 1   
    42   41   49 1   
    43   42   43 1   
    44   42   45 1   
    45   42   50 1   
    46   43   44 2   
    47   43   53 1   
    48   45   46 1   
    49   45   51 1   
    50   45   52 1   
    51   46   47 1   
    52   46   48 1   
    53   53   54 1   
    54   53   57 1   
    55   54   55 1   
    56   54   58 1   
    57   54   59 1   
    58   55   56 2   
    59   55   60 1   
    60   60   61 1   
    61   60   68 1   
    62   61   62 1   
    63   61   64 1   
    64   61   69 1   
    65   62   63 2   
    66   62   74 1   
    67   64   65 1   
    68   64   70 1   
    69   64   71 1   
    70   65   66 1   
    71   65   67 2   
    72   66   72 1   
    73   66   73 1   
    74   74   75 1   
    75   74   78 1   
    76   75   76 1   
    77   75   79 1   
    78   75   80 1   
    79   76   77 2   
    80   76   81 1   
    81   81   82 1   
    82   81   93 1   
    83   82   83 1   
    84   82   85 1   
    85   82   94 1   
    86   83   84 2   
    87   83  102 1   
    88   85   86 1   
    89   85   95 1   
    90   85   96 1   
    91   86   87 ar  
    92   86   88 ar  
    93   87   89 ar  
    94   87   97 1   
    95   88   90 ar  
    96   88   98 1   
    97   89   91 ar  
    98   89   99 1   
    99   90   91 ar  
   100   90  100 1   
   101   91   92 1   
   102   92  101 1   
   103  102  103 1   
   104  102  110 1   
   105  103  104 1   
   106  103  106 1   
   107  103  111 1   
   108  104  105 2   
   109  104  121 1   
   110  106  107 1   
   111  106  108 1   
   112  106  112 1   
   113  107  109 1   
   114  107  113 1   
   115  107  114 1   
   116  108  115 1   
   117  108  116 1   
   118  108  117 1   
   119  109  118 1   
   120  109  119 1   
   121  109  120 1   
   122  121  122 1   
   123  121  127 1   
   124  122  123 1   
   125  122  125 1   
   126  122  128 1   
   127  123  124 2   
   128  123  132 1   
   129  125  126 1   
   130  125  129 1   
   131  125  130 1   
   132  126  131 1   
   133  132  133 1   
   134  132  137 1   
   135  133  134 1   
   136  133  136 1   
   137  133  138 1   
   138  134  135 2   
   139  134  142 1   
   140  136  139 1   
   141  136  140 1   
   142  136  141 1   
   143  142  143 1   
   144  142  147 1   
   145  143  144 1   
   146  143  146 1   
   147  143  148 1   
   148  144  145 2   
   149  144  152 1   
   150  146  149 1   
   151  146  150 1   
   152  146  151 1   
   153  152  153 1   
   154  152  161 1   
   155  153  154 1   
   156  153  156 1   
   157  153  162 1   
   158  154  155 2   
   159  154  167 1   
   160  156  157 1   
   161  156  163 1   
   162  156  164 1   
   163  157  158 1   
   164  157  165 1   
   165  157  166 1   
   166  158  159 1   
   167  158  160 1   
   168  167  168 1   
   169  167  172 1   
   170  168  169 1   
   171  168  170 1   
   172  168  171 1   
   173  174  176 1   
   174  174  178 1   
   175  175  177 1   
   176  175  179 1   
   177  180  181 1   
   178  180  182 1   
@<TRIPOS>SUBSTRUCTURE
     1 MOL         1 TEMP              0 ****  ****    0 ROOT
