@<TRIPOS>MOLECULE
MOL
  175   173     1     0     0
SMALL
resp


@<TRIPOS>ATOM
      1 C1         -0.6660   -3.7930    5.5350 c3        1 MOL     -0.427580
      2 C2         -0.0450   -3.8870    4.1290 c         1 MOL      0.691650
      3 O1         -0.7210   -4.1690    3.1780 o         1 MOL     -0.527075
      4 H1         -1.7350   -3.6030    5.4470 hc        1 MOL      0.106078
      5 H2         -0.5060   -4.7310    6.0660 hc        1 MOL      0.106078
      6 H3         -0.1970   -2.9780    6.0860 hc        1 MOL      0.106078
      7 N1          1.2590   -3.6120    4.0170 n         1 MOL     -0.639659
      8 C3          1.9740   -3.5590    2.7520 c3        1 MOL      0.148919
      9 C4          1.9970   -4.8380    1.9850 c         1 MOL      0.645626
     10 O2          2.1130   -5.9400    2.5130 o         1 MOL     -0.597768
     11 C5          3.4090   -3.0980    3.0100 c3        1 MOL     -0.436992
     12 C6          4.1780   -2.5600    1.8810 c         1 MOL      0.831863
     13 O3          3.5990   -2.1530    0.8480 o         1 MOL     -0.679736
     14 O4          5.4140   -2.4200    2.0850 o         1 MOL     -0.679736
     15 H4          1.7760   -3.5240    4.8790 hn        1 MOL      0.321416
     16 H5          1.5070   -2.7580    2.1890 h1        1 MOL      0.117555
     17 H6          3.9540   -3.9480    3.4140 hc        1 MOL      0.096451
     18 H7          3.4310   -2.2760    3.7350 hc        1 MOL      0.096451
     19 N2          2.0470   -4.6430    0.6680 n         1 MOL     -0.438350
     20 C7          2.2470   -5.5550   -0.4130 c3        1 MOL      0.282540
     21 C8          3.2560   -5.1240   -1.5470 c         1 MOL      0.502225
     22 O5          3.6440   -6.0030   -2.3240 o         1 MOL     -0.588633
     23 C9          0.8890   -5.8100   -1.0150 c3        1 MOL     -0.359775
     24 H8          1.8760   -3.6860    0.3760 hn        1 MOL      0.199744
     25 H9          2.7150   -6.4330    0.0360 h1        1 MOL     -0.007470
     26 H10         0.4810   -4.9370   -1.5260 hc        1 MOL      0.090426
     27 H11         0.9940   -6.5410   -1.8180 hc        1 MOL      0.090426
     28 H12         0.2190   -6.1420   -0.2270 hc        1 MOL      0.090426
     29 N3          3.7520   -3.8830   -1.5780 n         1 MOL     -0.333127
     30 C10         4.7170   -3.4570   -2.6390 c3        1 MOL      0.017821
     31 C11         5.8640   -2.6150   -2.1580 c         1 MOL      0.372367
     32 O6          6.6770   -2.2210   -2.9930 o         1 MOL     -0.545011
     33 C12         3.9100   -2.9070   -3.8440 c3        1 MOL      0.035600
     34 C13         3.0210   -1.7540   -3.3480 c         1 MOL      0.676118
     35 O7          3.2440   -1.0590   -2.3190 o         1 MOL     -0.690664
     36 O8          2.0530   -1.5050   -4.1130 o         1 MOL     -0.690664
     37 H13         3.6130   -3.2550   -0.7980 hn        1 MOL      0.142939
     38 H14         5.1730   -4.2810   -3.1800 h1        1 MOL      0.082647
     39 H15         3.2840   -3.7240   -4.2010 hc        1 MOL     -0.002936
     40 H16         4.5740   -2.5880   -4.6550 hc        1 MOL     -0.002936
     41 N4          5.9610   -2.2840   -0.8380 n         1 MOL     -0.180044
     42 C14         7.0370   -1.4310   -0.3870 c3        1 MOL     -0.308464
     43 C15         7.0570    0.0750   -0.7780 c         1 MOL      0.551837
     44 O9          7.8900    0.7610   -0.3440 o         1 MOL     -0.614453
     45 H17         5.2820   -2.6290   -0.1670 hn        1 MOL      0.162197
     46 H18         7.9370   -1.9290   -0.7290 h1        1 MOL      0.132970
     47 H19         7.0800   -1.4550    0.6940 h1        1 MOL      0.132970
     48 N5          6.0530    0.5110   -1.5100 n         1 MOL     -0.146876
     49 C16         6.0770    1.7400   -2.2920 c3        1 MOL     -0.053080
     50 C17         6.3460    3.0430   -1.4190 c         1 MOL      0.440866
     51 O10         6.5340    4.0550   -2.0620 o         1 MOL     -0.547580
     52 C18         4.8400    1.8450   -3.1570 c3        1 MOL      0.053548
     53 C19         3.5650    2.2570   -2.4930 c         1 MOL      0.499039
     54 N6          2.5820    2.7500   -3.2230 n         1 MOL     -0.690931
     55 O11         3.4330    2.0820   -1.3110 o         1 MOL     -0.498396
     56 H20         5.2240   -0.0580   -1.6280 hn        1 MOL      0.169702
     57 H21         6.8620    1.5510   -3.0170 h1        1 MOL      0.062884
     58 H22         4.6960    0.8990   -3.6760 hc        1 MOL      0.004810
     59 H23         4.9670    2.5800   -3.9560 hc        1 MOL      0.004810
     60 H24         2.7210    2.8270   -4.2130 hn        1 MOL      0.350572
     61 H25         1.6360    2.8030   -2.8650 hn        1 MOL      0.350572
     62 N7          6.2000    3.0490   -0.0890 n         1 MOL     -0.117361
     63 C20         6.3860    4.2960    0.7210 c3        1 MOL     -0.198336
     64 C21         5.0640    4.7600    1.3230 c         1 MOL      0.607782
     65 O12         5.1960    5.7210    2.0890 o         1 MOL     -0.578058
     66 H26         6.2130    2.1650    0.3940 hn        1 MOL      0.205046
     67 H27         6.8250    5.0830    0.1070 h1        1 MOL      0.104585
     68 H28         7.1000    4.0720    1.5180 h1        1 MOL      0.104585
     69 N8          3.9000    4.0890    1.0810 n         1 MOL     -0.443367
     70 C22         2.5710    4.5740    1.3770 c3        1 MOL     -0.027932
     71 C23         1.4640    3.4510    1.3830 c         1 MOL      0.434596
     72 O13         1.6630    2.4750    0.7020 o         1 MOL     -0.419581
     73 C24         2.0400    5.7100    0.4030 c3        1 MOL      0.468057
     74 C25         2.5550    7.1200    0.7300 c3        1 MOL     -0.650070
     75 O14         2.4000    5.5100   -0.9410 oh        1 MOL     -0.580123
     76 H29         4.0880    3.2590    0.5440 hn        1 MOL      0.219689
     77 H30         2.6390    4.9500    2.3910 h1        1 MOL      0.077656
     78 H31         0.9610    5.8130    0.3770 h1        1 MOL      0.011267
     79 H32         2.1260    4.6340   -1.2260 ho        1 MOL      0.346133
     80 H33         2.4750    7.2440    1.8130 hc        1 MOL      0.168612
     81 H34         3.5720    7.2750    0.3650 hc        1 MOL      0.168612
     82 H35         1.8450    7.6890    0.1300 hc        1 MOL      0.168612
     83 N9          0.4050    3.6100    2.1690 n         1 MOL     -0.469319
     84 C26        -0.8130    2.8230    2.1860 c3        1 MOL     -0.148887
     85 C27        -1.6820    3.1610    0.9900 c         1 MOL      0.535828
     86 O15        -2.1680    4.2720    0.8100 o         1 MOL     -0.610168
     87 C28        -1.6220    2.9100    3.4660 c3        1 MOL      0.277370
     88 C29        -0.6840    2.5960    4.6980 c3        1 MOL      0.106133
     89 C30        -2.8520    2.0380    3.4780 c3        1 MOL     -0.276324
     90 C31        -1.3880    2.9350    6.0040 c3        1 MOL     -0.202012
     91 H36         0.3940    4.5000    2.6420 hn        1 MOL      0.257410
     92 H37        -0.6350    1.7650    2.0230 h1        1 MOL      0.070656
     93 H38        -1.9890    3.9170    3.6400 hc        1 MOL     -0.021472
     94 H39         0.2490    3.1700    4.7120 hc        1 MOL     -0.016928
     95 H40        -0.3960    1.5380    4.7190 hc        1 MOL     -0.016928
     96 H41        -3.5350    2.1280    2.6350 hc        1 MOL      0.056762
     97 H42        -2.5490    1.0030    3.6070 hc        1 MOL      0.056762
     98 H43        -3.3730    2.4310    4.3520 hc        1 MOL      0.056762
     99 H44        -1.6220    4.0040    5.9640 hc        1 MOL      0.036415
    100 H45        -2.2890    2.3750    6.2450 hc        1 MOL      0.036415
    101 H46        -0.7100    2.6470    6.8060 hc        1 MOL      0.036415
    102 N10        -1.7760    2.1910    0.1260 n         1 MOL      0.039109
    103 C32        -2.7080    2.1880   -0.9690 c3        1 MOL     -0.034461
    104 C33        -4.1790    1.7700   -0.6620 c         1 MOL      0.414985
    105 O16        -4.4080    1.0500    0.3480 o         1 MOL     -0.353645
    106 C34        -2.0730    1.2210   -1.9840 c3        1 MOL     -0.222080
    107 C35        -0.5790    1.4320   -2.2990 c         1 MOL      0.727874
    108 O17         0.2660    0.8340   -1.5980 o         1 MOL     -0.680540
    109 O18        -0.3210    2.1760   -3.2380 o         1 MOL     -0.680540
    110 H47        -1.1580    1.3880    0.1300 hn        1 MOL     -0.049347
    111 H48        -2.7090    3.1770   -1.4330 h1        1 MOL      0.051382
    112 H49        -2.7090    1.3060   -2.8600 hc        1 MOL      0.088878
    113 H50        -2.0750    0.1850   -1.6510 hc        1 MOL      0.088878
    114 N11        -5.1860    2.1170   -1.4080 n         1 MOL     -0.496011
    115 C36        -6.5230    1.6200   -1.1720 c3        1 MOL      0.178235
    116 C37        -6.5720    0.0470   -1.1550 c         1 MOL      0.423665
    117 O19        -7.2660   -0.5490   -0.3300 o         1 MOL     -0.531599
    118 C38        -7.5370    2.1610   -2.1670 c3        1 MOL     -0.226738
    119 C39        -8.9460    1.6920   -1.9800 ca        1 MOL      0.246621
    120 C40        -9.7170    2.3330   -0.9980 ca        1 MOL     -0.330117
    121 C41        -9.5220    0.6530   -2.7730 ca        1 MOL     -0.330117
    122 C42       -10.9870    1.8200   -0.7010 ca        1 MOL      0.051051
    123 C43       -10.8520    0.2360   -2.5020 ca        1 MOL      0.051051
    124 C44       -11.6060    0.8490   -1.4910 ca        1 MOL     -0.261575
    125 H51        -5.0340    2.7120   -2.2140 hn        1 MOL      0.318757
    126 H52        -6.8000    1.9540   -0.1730 h1        1 MOL      0.082885
    127 H53        -7.1760    1.9940   -3.1770 hc        1 MOL      0.071887
    128 H54        -7.6980    3.2380   -2.0700 hc        1 MOL      0.071887
    129 H55        -9.3170    3.1150   -0.3770 ha        1 MOL      0.159731
    130 H56        -8.9780    0.1140   -3.5320 ha        1 MOL      0.159731
    131 H57       -11.4970    2.2880    0.1250 ha        1 MOL      0.075316
    132 H58       -11.2460   -0.4690   -3.2120 ha        1 MOL      0.075316
    133 H59       -12.6310    0.5960   -1.2760 ha        1 MOL      0.128838
    134 N12        -5.8770   -0.7280   -1.9960 n         1 MOL     -0.016947
    135 C45        -5.9130   -2.1940   -1.8280 c3        1 MOL      0.025400
    136 C46        -5.1260   -2.7320   -0.5840 c         1 MOL      0.354901
    137 O20        -5.0890   -3.9200   -0.3810 o         1 MOL     -0.525036
    138 C47        -5.1990   -2.7280   -3.0700 c3        1 MOL     -0.081120
    139 C48        -4.3760   -1.5940   -3.7180 c3        1 MOL     -0.137459
    140 C49        -5.2910   -0.4190   -3.3050 c3        1 MOL     -0.012669
    141 H60        -6.9260   -2.6010   -1.8190 h1        1 MOL      0.078600
    142 H61        -4.5810   -3.5980   -2.8410 hc        1 MOL      0.042970
    143 H62        -5.9560   -3.1140   -3.7530 hc        1 MOL      0.042970
    144 H63        -3.4000   -1.4250   -3.2460 hc        1 MOL      0.093338
    145 H64        -4.0220   -1.5310   -4.7460 hc        1 MOL      0.093338
    146 H65        -4.7180    0.5030   -3.2490 h1        1 MOL     -0.000258
    147 H66        -6.1080   -0.3230   -4.0170 h1        1 MOL     -0.000258
    148 N13        -4.5420   -1.8610    0.2150 n         1 MOL     -0.016283
    149 C50        -3.9910   -2.2250    1.4650 c3        1 MOL     -0.145258
    150 C51        -4.9370   -1.6760    2.5460 c         1 MOL      0.491572
    151 O21        -4.9280   -2.1000    3.6730 o         1 MOL     -0.556911
    152 C52        -2.5790   -1.5410    1.5790 c3        1 MOL     -0.047732
    153 C53        -1.6260   -2.3500    0.5920 c3        1 MOL     -0.055910
    154 C54        -0.3060   -1.6830    0.4610 c         1 MOL      0.521823
    155 O22         0.6390   -2.2660   -0.1530 o         1 MOL     -0.651658
    156 O23        -0.1810   -0.5020    0.8700 o         1 MOL     -0.651658
    157 H67        -4.6180   -0.8840    0.0140 hn        1 MOL     -0.082669
    158 H68        -3.8730   -3.3010    1.5980 h1        1 MOL      0.131592
    159 H69        -2.3380   -1.7320    2.6170 hc        1 MOL      0.057804
    160 H70        -2.6620   -0.4810    1.3370 hc        1 MOL      0.057804
    161 H71        -2.0220   -2.4090   -0.4190 hc        1 MOL      0.074967
    162 H72        -1.4820   -3.3620    0.9750 hc        1 MOL      0.074967
    163 N14        -5.8270   -0.6920    2.2160 n         1 MOL     -0.153561
    164 C55        -6.8910   -0.2520    3.1470 c3        1 MOL     -0.136874
    165 H73        -7.8270   -0.1370    2.6000 h1        1 MOL      0.060485
    166 H74        -7.0190   -0.9970    3.9320 h1        1 MOL      0.060485
    167 H75        -6.6110    0.7030    3.5930 h1        1 MOL      0.060485
    168 H76        -5.7120   -0.1700    1.3610 hn        1 MOL      0.139515
    169 Ca1         2.2330   -0.0670   -0.1140 Ca        1 MOL      1.657331
    170 O24         4.7590    0.3650    1.0660 oh        1 MOL     -0.796662
    171 H77         4.9620   -0.5070    1.4190 ho        1 MOL      0.380087
    172 H78         4.8260    0.9450    1.8240 ho        1 MOL      0.380087
    173 O25         2.1740    0.1840    2.6240 oh        1 MOL     -0.796662
    174 H79         2.5800   -0.1610    3.4110 ho        1 MOL      0.380087
    175 H80         1.2550    0.3070    2.8740 ho        1 MOL      0.380087
@<TRIPOS>BOND
     1    1    2 1   
     2    1    4 1   
     3    1    5 1   
     4    1    6 1   
     5    2    3 2   
     6    2    7 1   
     7    7    8 1   
     8    7   15 1   
     9    8    9 1   
    10    8   11 1   
    11    8   16 1   
    12    9   10 2   
    13    9   19 1   
    14   11   12 1   
    15   11   17 1   
    16   11   18 1   
    17   12   13 1   
    18   12   14 1   
    19   19   20 1   
    20   19   24 1   
    21   20   21 1   
    22   20   23 1   
    23   20   25 1   
    24   21   22 2   
    25   21   29 1   
    26   23   26 1   
    27   23   27 1   
    28   23   28 1   
    29   29   30 1   
    30   29   37 1   
    31   30   31 1   
    32   30   33 1   
    33   30   38 1   
    34   31   32 2   
    35   31   41 1   
    36   33   34 1   
    37   33   39 1   
    38   33   40 1   
    39   34   35 1   
    40   34   36 1   
    41   41   42 1   
    42   41   45 1   
    43   42   43 1   
    44   42   46 1   
    45   42   47 1   
    46   43   44 2   
    47   43   48 1   
    48   48   49 1   
    49   48   56 1   
    50   49   50 1   
    51   49   52 1   
    52   49   57 1   
    53   50   51 2   
    54   50   62 1   
    55   52   53 1   
    56   52   58 1   
    57   52   59 1   
    58   53   54 1   
    59   53   55 2   
    60   54   60 1   
    61   54   61 1   
    62   62   63 1   
    63   62   66 1   
    64   63   64 1   
    65   63   67 1   
    66   63   68 1   
    67   64   65 2   
    68   64   69 1   
    69   69   70 1   
    70   69   76 1   
    71   70   71 1   
    72   70   73 1   
    73   70   77 1   
    74   71   72 2   
    75   71   83 1   
    76   73   74 1   
    77   73   75 1   
    78   73   78 1   
    79   74   80 1   
    80   74   81 1   
    81   74   82 1   
    82   75   79 1   
    83   83   84 1   
    84   83   91 1   
    85   84   85 1   
    86   84   87 1   
    87   84   92 1   
    88   85   86 2   
    89   85  102 1   
    90   87   88 1   
    91   87   89 1   
    92   87   93 1   
    93   88   90 1   
    94   88   94 1   
    95   88   95 1   
    96   89   96 1   
    97   89   97 1   
    98   89   98 1   
    99   90   99 1   
   100   90  100 1   
   101   90  101 1   
   102  102  103 1   
   103  102  110 1   
   104  103  104 1   
   105  103  106 1   
   106  103  111 1   
   107  104  105 2   
   108  104  114 1   
   109  106  107 1   
   110  106  112 1   
   111  106  113 1   
   112  107  108 1   
   113  107  109 1   
   114  114  115 1   
   115  114  125 1   
   116  115  116 1   
   117  115  118 1   
   118  115  126 1   
   119  116  117 2   
   120  116  134 1   
   121  118  119 1   
   122  118  127 1   
   123  118  128 1   
   124  119  120 ar  
   125  119  121 ar  
   126  120  122 ar  
   127  120  129 1   
   128  121  123 ar  
   129  121  130 1   
   130  122  124 ar  
   131  122  131 1   
   132  123  124 ar  
   133  123  132 1   
   134  124  133 1   
   135  134  135 1   
   136  134  140 1   
   137  135  136 1   
   138  135  138 1   
   139  135  141 1   
   140  136  137 2   
   141  136  148 1   
   142  138  139 1   
   143  138  142 1   
   144  138  143 1   
   145  139  140 1   
   146  139  144 1   
   147  139  145 1   
   148  140  146 1   
   149  140  147 1   
   150  148  149 1   
   151  148  157 1   
   152  149  150 1   
   153  149  152 1   
   154  149  158 1   
   155  150  151 2   
   156  150  163 1   
   157  152  153 1   
   158  152  159 1   
   159  152  160 1   
   160  153  154 1   
   161  153  161 1   
   162  153  162 1   
   163  154  155 1   
   164  154  156 1   
   165  163  164 1   
   166  163  168 1   
   167  164  165 1   
   168  164  166 1   
   169  164  167 1   
   170  170  171 1   
   171  170  172 1   
   172  173  174 1   
   173  173  175 1   
@<TRIPOS>SUBSTRUCTURE
     1 MOL         1 TEMP              0 ****  ****    0 ROOT
