@<TRIPOS>MOLECULE
MOL
  179   176     1     0     0
SMALL
resp


@<TRIPOS>ATOM
      1 C1          2.5500    2.2900    5.2770 c3        1 MOL     -0.488746
      2 C2          1.9560    2.2630    3.8800 c         1 MOL      0.889795
      3 O1          2.6830    2.0870    2.8880 o         1 MOL     -0.672463
      4 H1          3.5360    1.8250    5.2610 hc        1 MOL      0.119292
      5 H2          2.6410    3.3220    5.6140 hc        1 MOL      0.119292
      6 H3          1.9020    1.7400    5.9590 hc        1 MOL      0.119292
      7 N1          0.6820    2.3680    3.7450 n         1 MOL     -0.712314
      8 C3         -0.0530    2.3760    2.4830 c3        1 MOL      0.295730
      9 C4          0.0280    3.7540    1.7920 c         1 MOL      0.334524
     10 O2         -0.1360    4.7750    2.4240 o         1 MOL     -0.540775
     11 C5         -1.5290    2.0050    2.8480 c3        1 MOL     -0.335470
     12 C6         -2.4280    1.8070    1.5540 c         1 MOL      0.973432
     13 O3         -3.6500    1.7320    1.6490 o         1 MOL     -0.793244
     14 O4         -1.8230    1.7480    0.4770 o         1 MOL     -0.793244
     15 H4          0.1500    2.4830    4.5940 hn        1 MOL      0.341909
     16 H5          0.2690    1.5770    1.8190 h1        1 MOL     -0.025681
     17 H6         -1.9960    2.7760    3.4570 hc        1 MOL      0.070533
     18 H7         -1.5520    1.1010    3.4460 hc        1 MOL      0.070533
     19 N2          0.5540    3.7640    0.5810 n         1 MOL     -0.071961
     20 C7          0.9610    5.0000   -0.1220 c3        1 MOL     -0.002989
     21 C8         -0.0510    5.5290   -1.1050 c         1 MOL      0.419689
     22 O5         -0.0490    6.7660   -1.4190 o         1 MOL     -0.553562
     23 C9          2.2550    4.7120   -0.8270 c3        1 MOL     -0.170939
     24 C10         3.4630    4.3120    0.1130 c3        1 MOL      0.044403
     25 C11         3.8750    5.4670    1.0060 c3        1 MOL     -0.281714
     26 C12         4.6520    4.8610    2.2010 c3        1 MOL      0.203077
     27 N3          4.9250    5.8530    3.2620 n4        1 MOL     -0.383858
     28 H8          0.9270    2.9030    0.2050 hn        1 MOL      0.274745
     29 H9          0.9880    5.8480    0.5700 h1        1 MOL      0.060597
     30 H10         2.5360    5.6160   -1.3740 hc        1 MOL      0.064432
     31 H11         2.0350    3.9540   -1.5820 hc        1 MOL      0.064432
     32 H12         4.2680    4.0470   -0.5740 hc        1 MOL      0.060740
     33 H13         3.2430    3.4210    0.7070 hc        1 MOL      0.060740
     34 H14         3.0450    6.0500    1.3910 hc        1 MOL      0.091626
     35 H15         4.5060    6.0700    0.3540 hc        1 MOL      0.091626
     36 H16         5.6300    4.6240    1.7930 hx        1 MOL      0.066813
     37 H17         4.1270    4.0110    2.6380 hx        1 MOL      0.066813
     38 H18         4.7840    6.8090    2.9380 hn        1 MOL      0.316349
     39 H19         4.3260    5.6350    4.0430 hn        1 MOL      0.316349
     40 H20         5.8810    5.8510    3.5790 hn        1 MOL      0.316349
     41 N4         -0.9010    4.6770   -1.6230 n         1 MOL     -0.153895
     42 C13        -2.0310    5.1080   -2.4200 c3        1 MOL      0.065216
     43 C14        -3.4650    5.2720   -1.8550 c         1 MOL      0.463127
     44 O6         -4.2160    6.1620   -2.3520 o         1 MOL     -0.567636
     45 C15        -2.1170    4.1060   -3.5790 c3        1 MOL     -0.258449
     46 C16        -2.2230    2.6360   -3.2140 c         1 MOL      0.859703
     47 O7         -1.4710    1.7990   -3.6990 o         1 MOL     -0.779941
     48 O8         -2.9800    2.1840   -2.3440 o         1 MOL     -0.779941
     49 H21        -0.7920    3.6870   -1.4500 hn        1 MOL      0.088812
     50 H22        -1.9610    6.1330   -2.8070 h1        1 MOL      0.091311
     51 H23        -1.2620    4.2750   -4.2370 hc        1 MOL      0.063074
     52 H24        -2.9570    4.2110   -4.2700 hc        1 MOL      0.063074
     53 N5         -3.8520    4.5590   -0.8340 n         1 MOL     -0.282003
     54 C17        -5.1990    4.5600   -0.1220 c3        1 MOL      0.022581
     55 C18        -5.9700    3.2390   -0.0960 c         1 MOL      0.424627
     56 O9         -6.9650    3.1420    0.6070 o         1 MOL     -0.556998
     57 H25        -3.2010    3.8390   -0.5770 hn        1 MOL      0.140883
     58 H26        -5.7870    5.3920   -0.5300 h1        1 MOL      0.080538
     59 H27        -5.1180    4.9080    0.9090 h1        1 MOL      0.080538
     60 N6         -5.5510    2.2090   -0.8610 n         1 MOL     -0.171631
     61 C19        -6.3400    1.0770   -1.2760 c3        1 MOL     -0.096226
     62 C20        -6.6300    0.0580   -0.2000 c         1 MOL      0.344104
     63 O10        -7.3420   -0.9310   -0.4680 o         1 MOL     -0.438442
     64 C21        -5.8700    0.4000   -2.6080 c3        1 MOL     -0.226347
     65 C22        -4.8300   -0.7010   -2.4930 c         1 MOL      0.665170
     66 N7         -4.8860   -1.6730   -3.3580 n         1 MOL     -0.664975
     67 O11        -3.8330   -0.6620   -1.7310 o         1 MOL     -0.671039
     68 H28        -4.6970    2.4300   -1.3620 hn        1 MOL      0.190593
     69 H29        -7.2910    1.5600   -1.5150 h1        1 MOL      0.141314
     70 H30        -5.5670    1.1730   -3.3230 hc        1 MOL      0.100954
     71 H31        -6.7560   -0.0290   -3.0730 hc        1 MOL      0.100954
     72 H32        -5.6260   -1.6960   -4.0420 hn        1 MOL      0.334331
     73 H33        -4.2690   -2.4710   -3.3140 hn        1 MOL      0.334331
     74 N8         -6.0980    0.2530    1.0670 n         1 MOL     -0.240658
     75 C23        -6.2860   -0.7560    2.1150 c3        1 MOL     -0.170973
     76 C24        -5.3580   -1.9640    2.1470 c         1 MOL      0.558739
     77 O12        -5.6620   -2.9370    2.8210 o         1 MOL     -0.544902
     78 H34        -5.4690    1.0340    1.2180 hn        1 MOL      0.357011
     79 H35        -7.3330   -1.0550    2.1170 h1        1 MOL      0.104071
     80 H36        -6.2140   -0.2750    3.0980 h1        1 MOL      0.104071
     81 N9         -4.2000   -1.8890    1.4650 n         1 MOL     -0.303818
     82 C25        -3.2360   -2.9730    1.3110 c3        1 MOL      0.152132
     83 C26        -1.8310   -2.3140    1.2660 c         1 MOL      0.518752
     84 O13        -1.6500   -1.1820    0.7430 o         1 MOL     -0.664575
     85 C27        -3.4990   -3.7500    0.0030 c3        1 MOL      0.054280
     86 C28        -4.7420   -4.5830    0.0780 ca        1 MOL     -0.280365
     87 C29        -5.9110   -4.0240   -0.3800 ca        1 MOL      0.096710
     88 C30        -4.6980   -5.8640    0.6940 ca        1 MOL      0.096710
     89 C31        -7.1020   -4.7570   -0.3790 ca        1 MOL     -0.459034
     90 C32        -5.9020   -6.5950    0.7670 ca        1 MOL     -0.459034
     91 C33        -7.0650   -5.9690    0.3320 ca        1 MOL      0.551602
     92 O14        -8.2640   -6.5300    0.4900 oh        1 MOL     -0.513004
     93 H37        -3.9020   -0.9890    1.1310 hn        1 MOL      0.154502
     94 H38        -3.3320   -3.5890    2.2070 h1        1 MOL      0.013016
     95 H39        -2.6580   -4.4300   -0.1590 hc        1 MOL     -0.007553
     96 H40        -3.5460   -2.9690   -0.7480 hc        1 MOL     -0.007553
     97 H41        -5.9310   -3.0400   -0.8320 ha        1 MOL      0.073973
     98 H42        -3.7860   -6.3460    0.9980 ha        1 MOL      0.073973
     99 H43        -7.9800   -4.3020   -0.8060 ha        1 MOL      0.179610
    100 H44        -6.0580   -7.5580    1.2170 ha        1 MOL      0.179610
    101 H45        -8.3510   -7.3790    0.9320 ho        1 MOL      0.356401
    102 N10        -0.8930   -3.0910    1.8090 n         1 MOL     -0.468920
    103 C34         0.5520   -2.6540    1.7960 c3        1 MOL     -0.009001
    104 C35         1.4050   -3.6230    1.0130 c         1 MOL      0.483909
    105 O15         1.4430   -4.7520    1.4550 o         1 MOL     -0.573167
    106 C36         1.0620   -2.5230    3.2970 c3        1 MOL      0.129530
    107 C37         0.3980   -1.4460    4.0640 c3        1 MOL     -0.000841
    108 C38         2.6180   -2.2980    3.4870 c3        1 MOL     -0.229881
    109 C39         0.2750   -2.0170    5.4940 c3        1 MOL     -0.218096
    110 H46        -1.1470   -3.8930    2.3740 hn        1 MOL      0.317402
    111 H47         0.7340   -1.7220    1.2550 h1        1 MOL      0.144999
    112 H48         0.8850   -3.5070    3.7480 hc        1 MOL      0.020345
    113 H49        -0.6460   -1.2550    3.7890 hc        1 MOL      0.046348
    114 H50         1.0170   -0.5600    3.9250 hc        1 MOL      0.046348
    115 H51         2.9650   -1.6290    2.7100 hc        1 MOL      0.053652
    116 H52         2.8320   -1.8180    4.4340 hc        1 MOL      0.053652
    117 H53         3.1970   -3.2200    3.3980 hc        1 MOL      0.053652
    118 H54         1.1980   -2.4950    5.8110 hc        1 MOL      0.049417
    119 H55         0.0500   -1.1990    6.1790 hc        1 MOL      0.049417
    120 H56        -0.5640   -2.7070    5.4820 hc        1 MOL      0.049417
    121 N11         2.0430   -3.2070   -0.0650 n         1 MOL     -0.173122
    122 C40         2.9470   -4.0050   -0.9350 c3        1 MOL     -0.098648
    123 C41         4.4420   -3.7680   -0.6250 c         1 MOL      0.526291
    124 O16         4.8180   -2.9490    0.2190 o         1 MOL     -0.431210
    125 C42         2.6610   -3.6210   -2.3630 c3        1 MOL      0.009340
    126 O17         3.2960   -2.4320   -2.6460 oh        1 MOL     -0.514151
    127 H57         1.8660   -2.2370   -0.2830 hn        1 MOL      0.257921
    128 H58         2.6320   -5.0420   -0.8110 h1        1 MOL      0.091913
    129 H59         1.5890   -3.4790   -2.5200 h1        1 MOL      0.055123
    130 H60         2.9750   -4.3600   -3.0940 h1        1 MOL      0.055123
    131 H61         3.0160   -2.1050   -3.5050 ho        1 MOL      0.389851
    132 N12         5.3920   -4.4620   -1.3320 n         1 MOL     -0.465807
    133 C43         6.7940   -4.4240   -0.9360 c3        1 MOL      0.093175
    134 C44         7.4850   -3.1610   -1.3920 c         1 MOL      0.457266
    135 O18         8.3560   -2.6710   -0.6340 o         1 MOL     -0.521352
    136 C45         7.3890   -5.6420   -1.6630 c3        1 MOL     -0.312376
    137 H62         5.1720   -4.9990   -2.1630 hn        1 MOL      0.280978
    138 H63         6.7930   -4.4720    0.1530 h1        1 MOL      0.117853
    139 H64         7.3200   -5.6510   -2.7520 hc        1 MOL      0.098777
    140 H65         8.4440   -5.7460   -1.3930 hc        1 MOL      0.098777
    141 H66         6.8790   -6.5400   -1.3030 hc        1 MOL      0.098777
    142 N13         7.0270   -2.5550   -2.4630 n         1 MOL     -0.327185
    143 C46         7.3790   -1.2500   -2.9200 c3        1 MOL      0.116405
    144 C47         6.9870   -0.1200   -1.9190 c         1 MOL      0.293660
    145 O19         7.7250    0.8570   -1.6400 o         1 MOL     -0.497873
    146 C48         6.7700   -1.0370   -4.3380 c3        1 MOL     -0.260792
    147 H67         6.3080   -2.9610   -3.0430 hn        1 MOL      0.232168
    148 H68         8.4740   -1.2300   -2.9660 h1        1 MOL      0.075058
    149 H69         5.7040   -0.8400   -4.1710 hc        1 MOL      0.077963
    150 H70         7.2010   -0.0700   -4.6120 hc        1 MOL      0.077963
    151 H71         6.9780   -1.8250   -5.0480 hc        1 MOL      0.077963
    152 N14         5.8370   -0.3080   -1.3060 n         1 MOL      0.175295
    153 C49         5.3490    0.6870   -0.3850 c3        1 MOL     -0.389279
    154 C50         6.0900    0.5520    0.9890 c         1 MOL      0.644027
    155 O20         6.3300    1.5520    1.6230 o         1 MOL     -0.605766
    156 C51         3.8820    0.3900   -0.0430 c3        1 MOL      0.062756
    157 C52         3.0450    0.8000   -1.2750 c3        1 MOL      0.011144
    158 C53         1.5160    0.5700   -1.0720 c         1 MOL      0.658713
    159 O21         1.0650   -0.6210   -0.8460 o         1 MOL     -0.726366
    160 O22         0.7330    1.5220   -1.0730 o         1 MOL     -0.726366
    161 H72         5.2460   -1.1140   -1.4820 hn        1 MOL      0.017461
    162 H73         5.4310    1.7150   -0.7360 h1        1 MOL      0.148666
    163 H74         3.6160    1.0580    0.7700 hc        1 MOL     -0.015729
    164 H75         3.7380   -0.6510    0.2410 hc        1 MOL     -0.015729
    165 H76         3.2580    0.1130   -2.1060 hc        1 MOL     -0.035395
    166 H77         3.2640    1.8060   -1.6120 hc        1 MOL     -0.035395
    167 N15         6.4320   -0.7110    1.4430 n         1 MOL     -0.264430
    168 C54         7.3610   -0.8950    2.5350 c3        1 MOL     -0.203142
    169 H78         8.1440   -1.5900    2.2330 h1        1 MOL      0.092015
    170 H79         7.8080    0.0640    2.7980 h1        1 MOL      0.092015
    171 H80         6.8310   -1.2980    3.3990 h1        1 MOL      0.092015
    172 H81         6.2250   -1.5270    0.8970 hn        1 MOL      0.226198
    173 Ca1        -1.3660    0.2110   -1.5150 Ca        1 MOL      1.840128
    174 O23        -0.0170   -0.4880   -3.6950 oh        1 MOL     -0.809875
    175 H82         0.8810   -0.7840   -3.8420 ho        1 MOL      0.397838
    176 H83        -0.4010   -0.4660   -4.5670 ho        1 MOL      0.397838
    177 O24        -1.3190   -2.5630   -2.1820 oh        1 MOL     -0.809875
    178 H84        -1.1940   -3.4630   -1.8920 ho        1 MOL      0.397838
    179 H85        -1.6080   -2.6400   -3.0910 ho        1 MOL      0.397838
@<TRIPOS>BOND
     1    1    2 1   
     2    1    4 1   
     3    1    5 1   
     4    1    6 1   
     5    2    3 2   
     6    2    7 1   
     7    7    8 1   
     8    7   15 1   
     9    8    9 1   
    10    8   11 1   
    11    8   16 1   
    12    9   10 2   
    13    9   19 1   
    14   11   12 1   
    15   11   17 1   
    16   11   18 1   
    17   12   13 1   
    18   12   14 1   
    19   19   20 1   
    20   19   28 1   
    21   20   21 1   
    22   20   23 1   
    23   20   29 1   
    24   21   22 2   
    25   21   41 1   
    26   23   24 1   
    27   23   30 1   
    28   23   31 1   
    29   24   25 1   
    30   24   32 1   
    31   24   33 1   
    32   25   26 1   
    33   25   34 1   
    34   25   35 1   
    35   26   27 1   
    36   26   36 1   
    37   26   37 1   
    38   27   38 1   
    39   27   39 1   
    40   27   40 1   
    41   41   42 1   
    42   41   49 1   
    43   42   43 1   
    44   42   45 1   
    45   42   50 1   
    46   43   44 2   
    47   43   53 1   
    48   45   46 1   
    49   45   51 1   
    50   45   52 1   
    51   46   47 1   
    52   46   48 1   
    53   53   54 1   
    54   53   57 1   
    55   54   55 1   
    56   54   58 1   
    57   54   59 1   
    58   55   56 2   
    59   55   60 1   
    60   60   61 1   
    61   60   68 1   
    62   61   62 1   
    63   61   64 1   
    64   61   69 1   
    65   62   63 2   
    66   62   74 1   
    67   64   65 1   
    68   64   70 1   
    69   64   71 1   
    70   65   66 1   
    71   65   67 2   
    72   66   72 1   
    73   66   73 1   
    74   74   75 1   
    75   74   78 1   
    76   75   76 1   
    77   75   79 1   
    78   75   80 1   
    79   76   77 2   
    80   76   81 1   
    81   81   82 1   
    82   81   93 1   
    83   82   83 1   
    84   82   85 1   
    85   82   94 1   
    86   83   84 2   
    87   83  102 1   
    88   85   86 1   
    89   85   95 1   
    90   85   96 1   
    91   86   87 ar  
    92   86   88 ar  
    93   87   89 ar  
    94   87   97 1   
    95   88   90 ar  
    96   88   98 1   
    97   89   91 ar  
    98   89   99 1   
    99   90   91 ar  
   100   90  100 1   
   101   91   92 1   
   102   92  101 1   
   103  102  103 1   
   104  102  110 1   
   105  103  104 1   
   106  103  106 1   
   107  103  111 1   
   108  104  105 2   
   109  104  121 1   
   110  106  107 1   
   111  106  108 1   
   112  106  112 1   
   113  107  109 1   
   114  107  113 1   
   115  107  114 1   
   116  108  115 1   
   117  108  116 1   
   118  108  117 1   
   119  109  118 1   
   120  109  119 1   
   121  109  120 1   
   122  121  122 1   
   123  121  127 1   
   124  122  123 1   
   125  122  125 1   
   126  122  128 1   
   127  123  124 2   
   128  123  132 1   
   129  125  126 1   
   130  125  129 1   
   131  125  130 1   
   132  126  131 1   
   133  132  133 1   
   134  132  137 1   
   135  133  134 1   
   136  133  136 1   
   137  133  138 1   
   138  134  135 2   
   139  134  142 1   
   140  136  139 1   
   141  136  140 1   
   142  136  141 1   
   143  142  143 1   
   144  142  147 1   
   145  143  144 1   
   146  143  146 1   
   147  143  148 1   
   148  144  145 2   
   149  144  152 1   
   150  146  149 1   
   151  146  150 1   
   152  146  151 1   
   153  152  153 1   
   154  152  161 1   
   155  153  154 1   
   156  153  156 1   
   157  153  162 1   
   158  154  155 2   
   159  154  167 1   
   160  156  157 1   
   161  156  163 1   
   162  156  164 1   
   163  157  158 1   
   164  157  165 1   
   165  157  166 1   
   166  158  159 1   
   167  158  160 1   
   168  167  168 1   
   169  167  172 1   
   170  168  169 1   
   171  168  170 1   
   172  168  171 1   
   173  174  175 1   
   174  174  176 1   
   175  177  178 1   
   176  177  179 1   
@<TRIPOS>SUBSTRUCTURE
     1 MOL         1 TEMP              0 ****  ****    0 ROOT
