@<TRIPOS>MOLECULE
MOL
  175   173     1     0     0
SMALL
resp


@<TRIPOS>ATOM
      1 C1          0.4880    4.1280    5.4510 c3        1 MOL     -0.450787
      2 C2         -0.1330    4.1560    4.0540 c         1 MOL      0.786471
      3 O1          0.5080    4.5950    3.1280 o         1 MOL     -0.570861
      4 H1         -0.3010    4.0280    6.1970 hc        1 MOL      0.103780
      5 H2          1.1710    3.2820    5.5290 hc        1 MOL      0.103780
      6 H3          1.0350    5.0550    5.6240 hc        1 MOL      0.103780
      7 N1         -1.2980    3.5520    3.8950 n         1 MOL     -0.739487
      8 C3         -1.9570    3.3530    2.5870 c3        1 MOL      0.136256
      9 C4         -1.9040    4.6050    1.6050 c         1 MOL      0.684996
     10 O2         -2.0530    5.6710    2.1370 o         1 MOL     -0.600900
     11 C5         -3.4630    3.0680    2.7560 c3        1 MOL     -0.159496
     12 C6         -4.1240    2.6150    1.4880 c         1 MOL      0.565335
     13 O3         -3.3740    2.0150    0.6740 o         1 MOL     -0.592756
     14 O4         -5.2970    2.9620    1.2780 o         1 MOL     -0.592756
     15 H4         -1.8570    3.4950    4.7320 hn        1 MOL      0.339714
     16 H5         -1.4480    2.5180    2.1070 h1        1 MOL      0.133376
     17 H6         -4.0300    3.9240    3.1050 hc        1 MOL      0.023690
     18 H7         -3.6150    2.2670    3.4780 hc        1 MOL      0.023690
     19 N2         -1.7990    4.4550    0.3090 n         1 MOL     -0.569428
     20 C7         -2.2490    5.4420   -0.7430 c3        1 MOL      0.259326
     21 C8         -3.3760    4.9510   -1.7430 c         1 MOL      0.517137
     22 O5         -3.5980    5.7130   -2.6980 o         1 MOL     -0.587021
     23 C9         -0.9500    6.0490   -1.3550 c3        1 MOL     -0.126186
     24 H8         -1.5590    3.5430   -0.0610 hn        1 MOL      0.346387
     25 H9         -2.7830    6.3090   -0.3380 h1        1 MOL      0.014128
     26 H10        -0.5500    6.8330   -0.7120 hc        1 MOL      0.027356
     27 H11        -0.2010    5.2700   -1.3830 hc        1 MOL      0.027356
     28 H12        -1.0410    6.5060   -2.3450 hc        1 MOL      0.027356
     29 N3         -4.1070    3.8040   -1.6700 n         1 MOL     -0.365187
     30 C10        -4.9590    3.3060   -2.7940 c3        1 MOL      0.052264
     31 C11        -6.2040    2.4760   -2.3610 c         1 MOL      0.343282
     32 O6         -7.1010    2.1500   -3.1940 o         1 MOL     -0.554057
     33 C12        -4.0110    2.4930   -3.6090 c3        1 MOL     -0.165204
     34 C13        -3.1940    1.5020   -2.7630 c         1 MOL      0.683177
     35 O7         -1.9630    1.4810   -2.8370 o         1 MOL     -0.679925
     36 O8         -3.8700    0.6710   -2.0950 o         1 MOL     -0.679925
     37 H13        -3.8400    3.1340   -0.9600 hn        1 MOL      0.125950
     38 H14        -5.2990    4.1200   -3.4400 h1        1 MOL      0.102536
     39 H15        -3.3010    3.1260   -4.1330 hc        1 MOL      0.043513
     40 H16        -4.5840    1.8710   -4.2990 hc        1 MOL      0.043513
     41 N4         -6.3720    2.1590   -1.0790 n         1 MOL     -0.028486
     42 C14        -7.5260    1.3970   -0.6360 c3        1 MOL     -0.291850
     43 C15        -7.4890   -0.1250   -0.9840 c         1 MOL      0.533666
     44 O9         -8.4880   -0.7680   -0.8890 o         1 MOL     -0.609831
     45 H17        -5.7350    2.4150   -0.3500 hn        1 MOL      0.092678
     46 H18        -8.4000    1.8140   -1.1420 h1        1 MOL      0.119336
     47 H19        -7.5730    1.4630    0.4560 h1        1 MOL      0.119336
     48 N5         -6.3300   -0.5940   -1.4190 n         1 MOL     -0.129800
     49 C16        -6.1750   -1.9360   -1.9910 c3        1 MOL      0.096063
     50 C17        -6.1600   -3.0970   -0.9760 c         1 MOL      0.361352
     51 O10        -6.1780   -4.2240   -1.4280 o         1 MOL     -0.502649
     52 C18        -5.0780   -2.0810   -3.1100 c3        1 MOL     -0.360334
     53 C19        -3.6770   -2.1800   -2.5480 c         1 MOL      0.807558
     54 N6         -2.7150   -2.1990   -3.4220 n         1 MOL     -0.740287
     55 O11        -3.3520   -2.2180   -1.3740 o         1 MOL     -0.575223
     56 H20        -5.5820    0.0870   -1.4650 hn        1 MOL      0.110354
     57 H21        -7.0290   -2.1320   -2.6340 h1        1 MOL      0.079849
     58 H22        -5.1720   -1.1550   -3.6760 hc        1 MOL      0.100492
     59 H23        -5.2770   -3.0030   -3.6550 hc        1 MOL      0.100492
     60 H24        -2.9660   -1.8040   -4.3210 hn        1 MOL      0.320811
     61 H25        -1.7250   -2.1230   -3.2510 hn        1 MOL      0.320811
     62 N7         -6.1430   -2.8300    0.3360 n         1 MOL     -0.177624
     63 C20        -6.3240   -3.7840    1.4770 c3        1 MOL     -0.350467
     64 C21        -5.0170   -4.5280    1.8410 c         1 MOL      0.532689
     65 O12        -5.0810   -5.4250    2.6990 o         1 MOL     -0.590826
     66 H26        -5.9670   -1.8650    0.5700 hn        1 MOL      0.195815
     67 H27        -7.0050   -4.6040    1.2540 h1        1 MOL      0.164006
     68 H28        -6.6930   -3.2790    2.3670 h1        1 MOL      0.164006
     69 N8         -3.8850   -4.2420    1.1970 n         1 MOL     -0.124962
     70 C22        -2.4900   -4.6790    1.4420 c3        1 MOL     -0.204017
     71 C23        -1.5580   -3.5150    1.4850 c         1 MOL      0.579171
     72 O13        -1.8170   -2.3720    1.0170 o         1 MOL     -0.634191
     73 C24        -2.1010   -5.6230    0.2590 c3        1 MOL      0.500626
     74 C25        -2.6840   -7.0210    0.3270 c3        1 MOL     -0.253579
     75 O14        -2.5230   -5.2340   -1.0010 oh        1 MOL     -0.632086
     76 H29        -3.9440   -3.4670    0.5490 hn        1 MOL      0.111375
     77 H30        -2.3910   -5.2450    2.3600 h1        1 MOL      0.090584
     78 H31        -1.0240   -5.7430    0.2220 h1        1 MOL     -0.028333
     79 H32        -2.4150   -4.2980   -1.1670 ho        1 MOL      0.396055
     80 H33        -1.9770   -7.6190    0.9030 hc        1 MOL      0.051911
     81 H34        -3.6190   -7.0750    0.8740 hc        1 MOL      0.051911
     82 H35        -2.6090   -7.5500   -0.6200 hc        1 MOL      0.051911
     83 N9         -0.3450   -3.8540    2.0120 n         1 MOL     -0.416442
     84 C26         0.7910   -2.8630    1.9840 c3        1 MOL      0.045520
     85 C27         1.6010   -2.8890    0.6710 c         1 MOL      0.496872
     86 O15         2.0910   -3.9720    0.3260 o         1 MOL     -0.586558
     87 C28         1.6830   -2.9700    3.3100 c3        1 MOL      0.011555
     88 C29         0.8670   -2.7460    4.6540 c3        1 MOL      0.094752
     89 C30         2.7530   -1.9300    3.1900 c3        1 MOL     -0.135377
     90 C31         1.3710   -3.4730    5.9250 c3        1 MOL     -0.257102
     91 H36        -0.1830   -4.8220    2.2260 hn        1 MOL      0.252607
     92 H37         0.2990   -1.8920    1.9790 h1        1 MOL      0.027473
     93 H38         2.1450   -3.9560    3.3510 hc        1 MOL      0.015913
     94 H39        -0.1850   -3.0240    4.5950 hc        1 MOL     -0.001314
     95 H40         0.8210   -1.6820    4.8360 hc        1 MOL     -0.001314
     96 H41         3.2970   -2.0980    2.2600 hc        1 MOL      0.030131
     97 H42         2.2540   -0.9680    3.2470 hc        1 MOL      0.030131
     98 H43         3.5040   -1.8890    3.9790 hc        1 MOL      0.030131
     99 H44         0.8360   -3.0830    6.7850 hc        1 MOL      0.056759
    100 H45         1.2360   -4.5430    5.7730 hc        1 MOL      0.056759
    101 H46         2.4050   -3.1960    6.1210 hc        1 MOL      0.056759
    102 N10         1.7330   -1.7650   -0.0440 n         1 MOL     -0.232800
    103 C32         2.5810   -1.7230   -1.2130 c3        1 MOL      0.024972
    104 C33         3.9990   -1.4800   -0.7340 c         1 MOL      0.597142
    105 O16         4.1540   -0.7150    0.2140 o         1 MOL     -0.352054
    106 C34         1.9040   -0.8700   -2.2990 c3        1 MOL     -0.318765
    107 C35         0.4760   -1.2670   -2.6820 c         1 MOL      0.749160
    108 O17        -0.4320   -1.1030   -1.8490 o         1 MOL     -0.667835
    109 O18         0.2710   -1.8490   -3.7710 o         1 MOL     -0.667835
    110 H47         1.2790   -0.9140    0.2760 hn        1 MOL      0.182082
    111 H48         2.7250   -2.7210   -1.6150 h1        1 MOL      0.062342
    112 H49         2.4430   -0.7910   -3.2390 hc        1 MOL      0.081837
    113 H50         1.8940    0.1610   -1.9720 hc        1 MOL      0.081837
    114 N11         4.9880   -1.8830   -1.5110 n         1 MOL     -0.767115
    115 C36         6.3820   -1.6110   -1.2590 c3        1 MOL      0.440337
    116 C37         6.7120   -0.1290   -0.9410 c         1 MOL      0.297640
    117 O19         7.2450    0.0420    0.1710 o         1 MOL     -0.528790
    118 C38         7.1980   -2.2200   -2.4400 c3        1 MOL     -0.166831
    119 C39         8.7090   -1.9530   -2.3780 ca        1 MOL     -0.040885
    120 C40         9.3970   -2.3620   -1.2030 ca        1 MOL     -0.050356
    121 C41         9.4610   -1.2160   -3.3120 ca        1 MOL     -0.050356
    122 C42        10.7620   -2.2740   -1.0670 ca        1 MOL     -0.191863
    123 C43        10.8750   -1.0940   -3.1660 ca        1 MOL     -0.191863
    124 C44        11.4640   -1.4980   -1.9940 ca        1 MOL     -0.020140
    125 H51         4.7720   -2.5000   -2.2760 hn        1 MOL      0.350514
    126 H52         6.6510   -2.1500   -0.3470 h1        1 MOL      0.045881
    127 H53         6.7570   -1.8400   -3.3610 hc        1 MOL      0.063934
    128 H54         7.1080   -3.3080   -2.4610 hc        1 MOL      0.063934
    129 H55         8.8330   -2.8670   -0.4340 ha        1 MOL      0.083802
    130 H56         8.9380   -0.8570   -4.1820 ha        1 MOL      0.083802
    131 H57        11.3090   -2.7630   -0.2800 ha        1 MOL      0.125325
    132 H58        11.4140   -0.5670   -3.9340 ha        1 MOL      0.125325
    133 H59        12.5320   -1.4170   -1.8730 ha        1 MOL      0.077903
    134 N12         6.2680    0.8990   -1.5780 n         1 MOL     -0.026362
    135 C45         6.4190    2.3260   -1.1320 c3        1 MOL      0.016286
    136 C46         5.6310    2.9220    0.0900 c         1 MOL      0.192348
    137 O20         5.9190    4.0050    0.6980 o         1 MOL     -0.485174
    138 C47         6.0790    3.1610   -2.3880 c3        1 MOL     -0.003904
    139 C48         6.3620    2.1860   -3.5380 c3        1 MOL     -0.041241
    140 C49         5.8330    0.8480   -3.0180 c3        1 MOL     -0.132056
    141 H60         7.4950    2.4480   -0.9980 h1        1 MOL      0.083013
    142 H61         5.0210    3.4210   -2.3280 hc        1 MOL      0.043152
    143 H62         6.6710    4.0640   -2.4930 hc        1 MOL      0.043152
    144 H63         5.8060    2.5200   -4.4120 hc        1 MOL      0.021644
    145 H64         7.4510    2.1880   -3.6890 hc        1 MOL      0.021644
    146 H65         4.7420    0.8920   -2.9900 h1        1 MOL      0.087402
    147 H66         6.1940    0.0140   -3.6220 h1        1 MOL      0.087402
    148 N13         4.6980    2.0730    0.4770 n         1 MOL      0.053859
    149 C50         4.0480    2.2740    1.7750 c3        1 MOL     -0.081116
    150 C51         4.8980    1.5750    2.8790 c         1 MOL      0.438839
    151 O21         4.7780    2.0300    4.0120 o         1 MOL     -0.564141
    152 C52         2.6310    1.7410    1.8680 c3        1 MOL     -0.052710
    153 C53         1.7390    2.3630    0.7400 c3        1 MOL     -0.003414
    154 C54         0.4280    1.6120    0.6720 c         1 MOL      0.531718
    155 O22        -0.4120    2.0330   -0.1390 o         1 MOL     -0.680040
    156 O23         0.2430    0.5280    1.2790 o         1 MOL     -0.680040
    157 H67         4.6330    1.1620    0.0400 hn        1 MOL      0.009964
    158 H68         4.0850    3.3570    1.9380 h1        1 MOL      0.108265
    159 H69         2.1960    1.9890    2.8390 hc        1 MOL      0.070564
    160 H70         2.6550    0.6670    1.7250 hc        1 MOL      0.070564
    161 H71         2.2750    2.3890   -0.2070 hc        1 MOL      0.028211
    162 H72         1.5390    3.3890    1.0280 hc        1 MOL      0.028211
    163 N14         5.6280    0.5040    2.5580 n         1 MOL     -0.056388
    164 C55         6.4250   -0.2260    3.5600 c3        1 MOL     -0.187606
    165 H73         7.2890   -0.6800    3.0750 h1        1 MOL      0.076641
    166 H74         6.7630    0.4670    4.3310 h1        1 MOL      0.076641
    167 H75         5.8140   -1.0050    4.0150 h1        1 MOL      0.076641
    168 H76         5.5870    0.2120    1.5850 hn        1 MOL      0.058868
    169 Ca1        -2.1430   -0.0090   -0.3660 Ca        1 MOL      1.681389
    170 O24        -1.8500    0.1650    2.7190 oh        1 MOL     -0.742589
    171 H77        -1.7820    0.2150    3.6720 ho        1 MOL      0.368232
    172 H78        -0.9860    0.4200    2.3950 ho        1 MOL      0.368232
    173 O25        -4.1910   -0.5680    1.3120 oh        1 MOL     -0.742589
    174 H79        -5.0130   -0.7390    1.7780 ho        1 MOL      0.368232
    175 H80        -3.6160   -0.2080    1.9810 ho        1 MOL      0.368232
@<TRIPOS>BOND
     1    1    2 1   
     2    1    4 1   
     3    1    5 1   
     4    1    6 1   
     5    2    3 2   
     6    2    7 1   
     7    7    8 1   
     8    7   15 1   
     9    8    9 1   
    10    8   11 1   
    11    8   16 1   
    12    9   10 2   
    13    9   19 1   
    14   11   12 1   
    15   11   17 1   
    16   11   18 1   
    17   12   13 1   
    18   12   14 1   
    19   19   20 1   
    20   19   24 1   
    21   20   21 1   
    22   20   23 1   
    23   20   25 1   
    24   21   22 2   
    25   21   29 1   
    26   23   26 1   
    27   23   27 1   
    28   23   28 1   
    29   29   30 1   
    30   29   37 1   
    31   30   31 1   
    32   30   33 1   
    33   30   38 1   
    34   31   32 2   
    35   31   41 1   
    36   33   34 1   
    37   33   39 1   
    38   33   40 1   
    39   34   35 1   
    40   34   36 1   
    41   41   42 1   
    42   41   45 1   
    43   42   43 1   
    44   42   46 1   
    45   42   47 1   
    46   43   44 2   
    47   43   48 1   
    48   48   49 1   
    49   48   56 1   
    50   49   50 1   
    51   49   52 1   
    52   49   57 1   
    53   50   51 2   
    54   50   62 1   
    55   52   53 1   
    56   52   58 1   
    57   52   59 1   
    58   53   54 1   
    59   53   55 2   
    60   54   60 1   
    61   54   61 1   
    62   62   63 1   
    63   62   66 1   
    64   63   64 1   
    65   63   67 1   
    66   63   68 1   
    67   64   65 2   
    68   64   69 1   
    69   69   70 1   
    70   69   76 1   
    71   70   71 1   
    72   70   73 1   
    73   70   77 1   
    74   71   72 2   
    75   71   83 1   
    76   73   74 1   
    77   73   75 1   
    78   73   78 1   
    79   74   80 1   
    80   74   81 1   
    81   74   82 1   
    82   75   79 1   
    83   83   84 1   
    84   83   91 1   
    85   84   85 1   
    86   84   87 1   
    87   84   92 1   
    88   85   86 2   
    89   85  102 1   
    90   87   88 1   
    91   87   89 1   
    92   87   93 1   
    93   88   90 1   
    94   88   94 1   
    95   88   95 1   
    96   89   96 1   
    97   89   97 1   
    98   89   98 1   
    99   90   99 1   
   100   90  100 1   
   101   90  101 1   
   102  102  103 1   
   103  102  110 1   
   104  103  104 1   
   105  103  106 1   
   106  103  111 1   
   107  104  105 2   
   108  104  114 1   
   109  106  107 1   
   110  106  112 1   
   111  106  113 1   
   112  107  108 1   
   113  107  109 1   
   114  114  115 1   
   115  114  125 1   
   116  115  116 1   
   117  115  118 1   
   118  115  126 1   
   119  116  117 2   
   120  116  134 1   
   121  118  119 1   
   122  118  127 1   
   123  118  128 1   
   124  119  120 ar  
   125  119  121 ar  
   126  120  122 ar  
   127  120  129 1   
   128  121  123 ar  
   129  121  130 1   
   130  122  124 ar  
   131  122  131 1   
   132  123  124 ar  
   133  123  132 1   
   134  124  133 1   
   135  134  135 1   
   136  134  140 1   
   137  135  136 1   
   138  135  138 1   
   139  135  141 1   
   140  136  137 2   
   141  136  148 1   
   142  138  139 1   
   143  138  142 1   
   144  138  143 1   
   145  139  140 1   
   146  139  144 1   
   147  139  145 1   
   148  140  146 1   
   149  140  147 1   
   150  148  149 1   
   151  148  157 1   
   152  149  150 1   
   153  149  152 1   
   154  149  158 1   
   155  150  151 2   
   156  150  163 1   
   157  152  153 1   
   158  152  159 1   
   159  152  160 1   
   160  153  154 1   
   161  153  161 1   
   162  153  162 1   
   163  154  155 1   
   164  154  156 1   
   165  163  164 1   
   166  163  168 1   
   167  164  165 1   
   168  164  166 1   
   169  164  167 1   
   170  170  171 1   
   171  170  172 1   
   172  173  174 1   
   173  173  175 1   
@<TRIPOS>SUBSTRUCTURE
     1 MOL         1 TEMP              0 ****  ****    0 ROOT
