@<TRIPOS>MOLECULE
MOL
  189   185     1     0     0
SMALL
resp


@<TRIPOS>ATOM
      1 C1          0.2570    3.3260   -4.7810 c3        1 MOL     -0.372723
      2 C2          0.8490    2.8430   -3.4400 c         1 MOL      0.620603
      3 O1          0.3300    3.2520   -2.4330 o         1 MOL     -0.590300
      4 H1         -0.7620    2.9520   -4.8830 hc        1 MOL      0.098601
      5 H2          0.2470    4.4150   -4.8030 hc        1 MOL      0.098601
      6 H3          0.8660    2.9500   -5.6030 hc        1 MOL      0.098601
      7 N1          1.7450    1.8430   -3.3820 n         1 MOL     -0.404550
      8 C3          2.4240    1.4300   -2.1110 c3        1 MOL      0.049129
      9 C4          3.3860    2.4940   -1.5950 c         1 MOL      0.314586
     10 O2          4.5270    2.5470   -2.0250 o         1 MOL     -0.496168
     11 C5          3.1600    0.0810   -2.3510 c3        1 MOL     -0.084363
     12 C6          4.0450   -0.4040   -1.2390 c         1 MOL      0.748989
     13 O3          3.6580   -0.1620   -0.0540 o         1 MOL     -0.689774
     14 O4          5.1200   -1.0550   -1.4240 o         1 MOL     -0.689774
     15 H4          2.1730    1.6440   -4.2710 hn        1 MOL      0.273728
     16 H5          1.6860    1.2180   -1.3410 h1        1 MOL      0.101818
     17 H6          3.6460    0.0470   -3.3290 hc        1 MOL      0.005055
     18 H7          2.3570   -0.6370   -2.5110 hc        1 MOL      0.005055
     19 N2          2.8740    3.3820   -0.7280 n         1 MOL     -0.031356
     20 C7          3.5980    4.5880   -0.3420 c3        1 MOL     -0.092386
     21 C8          4.2450    4.5160    1.0770 c         1 MOL      0.386186
     22 O5          5.0040    5.3830    1.4800 o         1 MOL     -0.518583
     23 C9          2.7080    5.8420   -0.4750 c3        1 MOL      0.039840
     24 C10         2.3150    6.2810   -1.9070 c3        1 MOL      0.063778
     25 C11         3.5840    6.9120   -2.5840 c3        1 MOL     -0.119889
     26 C12         4.3000    8.0950   -1.9100 c3        1 MOL      0.227000
     27 N3          5.3840    8.6520   -2.7710 n4        1 MOL     -0.559264
     28 H8          1.8790    3.3750   -0.5110 hn        1 MOL      0.237682
     29 H9          4.5420    4.6660   -0.8980 h1        1 MOL      0.098142
     30 H10         3.1150    6.6770    0.0930 hc        1 MOL      0.006604
     31 H11         1.7450    5.6930    0.0180 hc        1 MOL      0.006604
     32 H12         1.5910    7.0970   -1.8760 hc        1 MOL      0.014524
     33 H13         2.0770    5.4150   -2.5280 hc        1 MOL      0.014524
     34 H14         3.3360    7.1870   -3.6020 hc        1 MOL      0.023709
     35 H15         4.3620    6.1660   -2.7350 hc        1 MOL      0.023709
     36 H16         4.7180    7.7140   -0.9690 hx        1 MOL      0.029381
     37 H17         3.5850    8.8740   -1.6310 hx        1 MOL      0.029381
     38 H18         4.9850    9.0820   -3.5890 hn        1 MOL      0.378144
     39 H19         5.9630    9.2690   -2.2160 hn        1 MOL      0.378144
     40 H20         6.0230    7.8950   -2.9850 hn        1 MOL      0.378144
     41 N4          3.9930    3.4340    1.8820 n         1 MOL     -0.243735
     42 C13         4.9080    3.0780    2.9500 c3        1 MOL      0.024736
     43 C14         6.0530    2.1930    2.4780 c         1 MOL      0.461491
     44 O6          7.1790    2.4410    2.9140 o         1 MOL     -0.541414
     45 C15         4.2250    2.3970    4.1190 c3        1 MOL     -0.283881
     46 C16         2.9820    1.5700    3.8370 c         1 MOL      0.694944
     47 O7          2.1840    1.4520    4.8200 o         1 MOL     -0.663911
     48 O8          2.8280    0.8430    2.8310 o         1 MOL     -0.663911
     49 H21         3.3020    2.7790    1.5760 hn        1 MOL      0.140655
     50 H22         5.4680    3.9650    3.2700 h1        1 MOL      0.098327
     51 H23         3.7770    3.1500    4.7640 hc        1 MOL      0.090432
     52 H24         4.9090    1.9290    4.8190 hc        1 MOL      0.090432
     53 N5          5.8910    1.5490    1.2680 n         1 MOL      0.036132
     54 C17         7.0100    0.7570    0.6750 c3        1 MOL     -0.467198
     55 C18         7.1550   -0.5450    1.5210 c         1 MOL      0.720071
     56 O9          8.0940   -0.7390    2.2700 o         1 MOL     -0.580809
     57 H25         4.9700    1.3610    0.9050 hn        1 MOL     -0.051726
     58 H26         7.9460    1.3140    0.7490 h1        1 MOL      0.171766
     59 H27         6.8430    0.6690   -0.3920 h1        1 MOL      0.171766
     60 N6          6.3130   -1.5500    1.2820 n         1 MOL     -0.389018
     61 C19         6.4440   -3.0000    1.7180 c3        1 MOL     -0.049497
     62 C20         6.3400   -4.0390    0.6120 c         1 MOL      0.449567
     63 O10         6.4920   -5.2210    0.9150 o         1 MOL     -0.540954
     64 C21         5.3600   -3.3210    2.7490 c3        1 MOL     -0.058427
     65 C22         3.9970   -2.9070    2.2870 c         1 MOL      0.656216
     66 O11         3.5240   -3.1830    1.1720 o         1 MOL     -0.679629
     67 O12         3.2560   -2.4350    3.1680 o         1 MOL     -0.679629
     68 H28         5.7260   -1.3790    0.4890 hn        1 MOL      0.127833
     69 H29         7.3660   -3.0980    2.2820 h1        1 MOL      0.127468
     70 H30         5.6820   -2.9080    3.7110 hc        1 MOL      0.045068
     71 H31         5.3490   -4.3950    2.9160 hc        1 MOL      0.045068
     72 N7          6.0380   -3.7020   -0.6590 n         1 MOL     -0.372552
     73 C23         5.7840   -4.6870   -1.7080 c3        1 MOL      0.024984
     74 C24         4.3090   -4.9570   -2.0520 c         1 MOL      0.424334
     75 O13         4.1740   -5.8560   -2.9130 o         1 MOL     -0.574512
     76 H32         5.6980   -2.7590   -0.7900 hn        1 MOL      0.320084
     77 H33         6.1780   -5.6560   -1.4280 h1        1 MOL      0.067764
     78 H34         6.3480   -4.3970   -2.5960 h1        1 MOL      0.067764
     79 N8          3.3470   -4.3270   -1.4160 n         1 MOL     -0.120754
     80 C25         1.9590   -4.6530   -1.6340 c3        1 MOL     -0.161930
     81 C26         0.9840   -3.3700   -1.4900 c         1 MOL      0.507969
     82 O14         1.2440   -2.3110   -0.8070 o         1 MOL     -0.585811
     83 C27         1.5130   -5.6360   -0.4790 c3        1 MOL      0.399989
     84 C28         1.9820   -7.0370   -0.6820 c3        1 MOL     -0.409573
     85 O15         1.9640   -5.3480    0.8190 oh        1 MOL     -0.645432
     86 H35         3.6720   -3.6050   -0.8010 hn        1 MOL      0.145688
     87 H36         1.8070   -5.1310   -2.6000 h1        1 MOL      0.104275
     88 H37         0.4310   -5.6850   -0.5180 h1        1 MOL     -0.006310
     89 H38         2.5230   -4.5690    0.8600 ho        1 MOL      0.472616
     90 H39         2.9810   -7.2090   -0.2690 hc        1 MOL      0.108292
     91 H40         1.3050   -7.7400   -0.2180 hc        1 MOL      0.108292
     92 H41         2.1570   -7.4190   -1.6950 hc        1 MOL      0.108292
     93 N9         -0.1560   -3.5380   -2.1510 n         1 MOL     -0.485700
     94 C29        -1.2630   -2.5440   -2.2480 c3        1 MOL     -0.075813
     95 C30        -2.4630   -2.9800   -1.4570 c         1 MOL      0.602112
     96 O16        -3.1260   -3.9770   -1.7680 o         1 MOL     -0.561656
     97 C31        -1.5590   -2.2640   -3.7330 c3        1 MOL      0.302752
     98 C32        -0.3160   -1.8210   -4.5790 c3        1 MOL      0.210684
     99 C33        -2.7130   -1.2650   -3.7610 c3        1 MOL     -0.151439
    100 C34        -0.8220   -1.6640   -5.9950 c3        1 MOL     -0.267880
    101 H42        -0.1620   -4.4330   -2.6210 hn        1 MOL      0.283262
    102 H43        -0.8890   -1.6250   -1.7910 h1        1 MOL      0.169397
    103 H44        -2.0160   -3.1480   -4.1760 hc        1 MOL     -0.053488
    104 H45         0.3830   -2.6430   -4.4890 hc        1 MOL     -0.062187
    105 H46         0.0500   -0.8790   -4.1620 hc        1 MOL     -0.062187
    106 H47        -3.5970   -1.5140   -3.1650 hc        1 MOL     -0.000878
    107 H48        -2.3240   -0.3250   -3.3780 hc        1 MOL     -0.000878
    108 H49        -3.0710   -1.0910   -4.7790 hc        1 MOL     -0.000878
    109 H50        -1.5260   -0.8490   -6.1340 hc        1 MOL      0.056549
    110 H51         0.0920   -1.4380   -6.5580 hc        1 MOL      0.056549
    111 H52        -1.2630   -2.6180   -6.2850 hc        1 MOL      0.056549
    112 N10        -2.8320   -2.1510   -0.4470 n         1 MOL     -0.425430
    113 C35        -4.1500   -2.3770    0.2530 c3        1 MOL     -0.016841
    114 C36        -5.4020   -1.7090   -0.4360 c         1 MOL      0.424659
    115 O17        -5.3240   -0.7480   -1.1920 o         1 MOL     -0.351039
    116 C37        -4.1180   -2.0850    1.7300 c3        1 MOL      0.440268
    117 C38        -3.2740   -3.0000    2.6170 c3        1 MOL     -0.395736
    118 O18        -3.5860   -0.8020    1.9190 oh        1 MOL     -0.611111
    119 H53        -2.2710   -1.3200   -0.4060 hn        1 MOL      0.235854
    120 H54        -4.4020   -3.4310    0.3630 h1        1 MOL      0.087169
    121 H55        -5.1200   -2.1040    2.1630 h1        1 MOL     -0.035933
    122 H56        -2.7930   -0.8590    1.3790 ho        1 MOL      0.383345
    123 H57        -3.4780   -2.6790    3.6440 hc        1 MOL      0.102077
    124 H58        -3.5910   -4.0380    2.5080 hc        1 MOL      0.102077
    125 H59        -2.2360   -3.0310    2.3150 hc        1 MOL      0.102077
    126 N11        -6.5970   -2.1610   -0.1430 n         1 MOL     -0.323981
    127 C39        -7.9050   -1.5730   -0.6390 c3        1 MOL      0.036688
    128 C40        -7.9530   -0.0140   -0.5430 c         1 MOL      0.165025
    129 O19        -8.2630    0.7650   -1.4650 o         1 MOL     -0.427494
    130 C41        -9.1370   -2.0840    0.0740 c3        1 MOL      0.351068
    131 C42       -10.4550   -1.8960   -0.6000 c3        1 MOL     -0.524463
    132 O20        -8.9220   -3.5320    0.1570 oh        1 MOL     -0.597471
    133 H60        -6.6570   -2.9670    0.4650 hn        1 MOL      0.208948
    134 H61        -7.9810   -1.7060   -1.7250 h1        1 MOL      0.123809
    135 H62        -9.2420   -1.7630    1.1050 h1        1 MOL     -0.023391
    136 H63        -9.7480   -3.8570    0.5230 ho        1 MOL      0.378977
    137 H64       -10.7620   -0.8410   -0.5940 hc        1 MOL      0.153821
    138 H65       -10.4360   -2.3790   -1.5720 hc        1 MOL      0.153821
    139 H66       -11.2100   -2.3840    0.0120 hc        1 MOL      0.153821
    140 N12        -7.6320    0.4710    0.6520 n         1 MOL     -0.126082
    141 C43        -7.5220    1.9070    0.8500 c3        1 MOL      0.003653
    142 C44        -6.2240    2.5560    0.2940 c         1 MOL      0.436880
    143 O21        -6.3510    3.6650   -0.1120 o         1 MOL     -0.495120
    144 C45        -7.7500    2.1790    2.2960 c3        1 MOL     -0.126452
    145 C46        -6.4330    1.8350    3.2390 c3        1 MOL      0.020801
    146 C47        -6.6410    2.5030    4.5920 c3        1 MOL     -0.006421
    147 C48        -7.6590    1.5680    5.3130 c3        1 MOL      0.003968
    148 N13        -8.2100    2.0690    6.5780 n4        1 MOL     -0.356901
    149 H67        -7.4890   -0.1050    1.4750 hn        1 MOL      0.173331
    150 H68        -8.2570    2.4790    0.2840 h1        1 MOL      0.104555
    151 H69        -8.6240    1.6260    2.6600 hc        1 MOL      0.033492
    152 H70        -7.9470    3.2530    2.3620 hc        1 MOL      0.033492
    153 H71        -5.5130    2.2420    2.8100 hc        1 MOL      0.021126
    154 H72        -6.2890    0.7580    3.2640 hc        1 MOL      0.021126
    155 H73        -7.1170    3.4690    4.4300 hc        1 MOL      0.051249
    156 H74        -5.7190    2.6870    5.1480 hc        1 MOL      0.051249
    157 H75        -7.3030    0.5500    5.4040 hx        1 MOL      0.086759
    158 H76        -8.5860    1.5120    4.7330 hx        1 MOL      0.086759
    159 H77        -8.9290    2.7850    6.5430 hn        1 MOL      0.315239
    160 H78        -8.6400    1.3020    7.0630 hn        1 MOL      0.315239
    161 H79        -7.4590    2.3750    7.1810 hn        1 MOL      0.315239
    162 N14        -5.0790    1.8580    0.0830 n         1 MOL     -0.024857
    163 C49        -3.9960    2.4490   -0.6760 c3        1 MOL     -0.343980
    164 C50        -4.5130    2.6680   -2.1500 c         1 MOL      0.455727
    165 O22        -4.2080    3.7850   -2.7360 o         1 MOL     -0.557777
    166 C51        -2.7760    1.5900   -0.7130 c3        1 MOL      0.270329
    167 C52        -2.0780    1.6600    0.6680 c3        1 MOL     -0.233223
    168 C53        -0.8110    0.7220    0.7000 c         1 MOL      0.697853
    169 O23        -0.8780   -0.5590    0.8690 o         1 MOL     -0.759247
    170 O24         0.3250    1.2520    0.6510 o         1 MOL     -0.759247
    171 H80        -5.0170    0.8830    0.3260 hn        1 MOL      0.023563
    172 H81        -3.7100    3.4350   -0.3330 h1        1 MOL      0.152869
    173 H82        -2.1350    1.9940   -1.4910 hc        1 MOL     -0.001083
    174 H83        -3.0120    0.5550   -0.9270 hc        1 MOL     -0.001083
    175 H84        -2.8100    1.4490    1.4450 hc        1 MOL      0.063034
    176 H85        -1.7690    2.7000    0.7980 hc        1 MOL      0.063034
    177 N15        -5.1910    1.7100   -2.7590 n         1 MOL     -0.095898
    178 C54        -5.7630    1.8450   -4.0670 c3        1 MOL     -0.208765
    179 H86        -6.8340    1.6500   -4.0170 h1        1 MOL      0.090012
    180 H87        -5.5940    2.8570   -4.4360 h1        1 MOL      0.090012
    181 H88        -5.2960    1.1290   -4.7440 h1        1 MOL      0.090012
    182 H89        -5.4990    0.9600   -2.1560 hn        1 MOL      0.174026
    183 Ca1         1.7530   -0.9980    1.5180 Ca        1 MOL      1.752262
    184 O25         0.6150   -3.3060    2.1320 oh        1 MOL     -0.822898
    185 H90         1.0940   -4.0320    1.7420 ho        1 MOL      0.379181
    186 H91        -0.0390   -3.7190    2.7030 ho        1 MOL      0.379181
    187 O26         0.3830   -0.3280    3.9560 oh        1 MOL     -0.822898
    188 H92        -0.3310    0.3030    4.0330 ho        1 MOL      0.379181
    189 H93         1.1800    0.1900    4.0700 ho        1 MOL      0.379181
@<TRIPOS>BOND
     1    1    2 1   
     2    1    4 1   
     3    1    5 1   
     4    1    6 1   
     5    2    3 2   
     6    2    7 1   
     7    7    8 1   
     8    7   15 1   
     9    8    9 1   
    10    8   11 1   
    11    8   16 1   
    12    9   10 2   
    13    9   19 1   
    14   11   12 1   
    15   11   17 1   
    16   11   18 1   
    17   12   13 1   
    18   12   14 1   
    19   19   20 1   
    20   19   28 1   
    21   20   21 1   
    22   20   23 1   
    23   20   29 1   
    24   21   22 2   
    25   21   41 1   
    26   23   24 1   
    27   23   30 1   
    28   23   31 1   
    29   24   25 1   
    30   24   32 1   
    31   24   33 1   
    32   25   26 1   
    33   25   34 1   
    34   25   35 1   
    35   26   27 1   
    36   26   36 1   
    37   26   37 1   
    38   27   38 1   
    39   27   39 1   
    40   27   40 1   
    41   41   42 1   
    42   41   49 1   
    43   42   43 1   
    44   42   45 1   
    45   42   50 1   
    46   43   44 2   
    47   43   53 1   
    48   45   46 1   
    49   45   51 1   
    50   45   52 1   
    51   46   47 1   
    52   46   48 1   
    53   53   54 1   
    54   53   57 1   
    55   54   55 1   
    56   54   58 1   
    57   54   59 1   
    58   55   56 2   
    59   55   60 1   
    60   60   61 1   
    61   60   68 1   
    62   61   62 1   
    63   61   64 1   
    64   61   69 1   
    65   62   63 2   
    66   62   72 1   
    67   64   65 1   
    68   64   70 1   
    69   64   71 1   
    70   65   66 1   
    71   65   67 1   
    72   72   73 1   
    73   72   76 1   
    74   73   74 1   
    75   73   77 1   
    76   73   78 1   
    77   74   75 2   
    78   74   79 1   
    79   79   80 1   
    80   79   86 1   
    81   80   81 1   
    82   80   83 1   
    83   80   87 1   
    84   81   82 2   
    85   81   93 1   
    86   83   84 1   
    87   83   85 1   
    88   83   88 1   
    89   84   90 1   
    90   84   91 1   
    91   84   92 1   
    92   85   89 1   
    93   93   94 1   
    94   93  101 1   
    95   94   95 1   
    96   94   97 1   
    97   94  102 1   
    98   95   96 2   
    99   95  112 1   
   100   97   98 1   
   101   97   99 1   
   102   97  103 1   
   103   98  100 1   
   104   98  104 1   
   105   98  105 1   
   106   99  106 1   
   107   99  107 1   
   108   99  108 1   
   109  100  109 1   
   110  100  110 1   
   111  100  111 1   
   112  112  113 1   
   113  112  119 1   
   114  113  114 1   
   115  113  116 1   
   116  113  120 1   
   117  114  115 2   
   118  114  126 1   
   119  116  117 1   
   120  116  118 1   
   121  116  121 1   
   122  117  123 1   
   123  117  124 1   
   124  117  125 1   
   125  118  122 1   
   126  126  127 1   
   127  126  133 1   
   128  127  128 1   
   129  127  130 1   
   130  127  134 1   
   131  128  129 2   
   132  128  140 1   
   133  130  131 1   
   134  130  132 1   
   135  130  135 1   
   136  131  137 1   
   137  131  138 1   
   138  131  139 1   
   139  132  136 1   
   140  140  141 1   
   141  140  149 1   
   142  141  142 1   
   143  141  144 1   
   144  141  150 1   
   145  142  143 2   
   146  142  162 1   
   147  144  145 1   
   148  144  151 1   
   149  144  152 1   
   150  145  146 1   
   151  145  153 1   
   152  145  154 1   
   153  146  147 1   
   154  146  155 1   
   155  146  156 1   
   156  147  148 1   
   157  147  157 1   
   158  147  158 1   
   159  148  159 1   
   160  148  160 1   
   161  148  161 1   
   162  162  163 1   
   163  162  171 1   
   164  163  164 1   
   165  163  166 1   
   166  163  172 1   
   167  164  165 2   
   168  164  177 1   
   169  166  167 1   
   170  166  173 1   
   171  166  174 1   
   172  167  168 1   
   173  167  175 1   
   174  167  176 1   
   175  168  169 1   
   176  168  170 1   
   177  177  178 1   
   178  177  182 1   
   179  178  179 1   
   180  178  180 1   
   181  178  181 1   
   182  184  185 1   
   183  184  186 1   
   184  187  188 1   
   185  187  189 1   
@<TRIPOS>SUBSTRUCTURE
     1 MOL         1 TEMP              0 ****  ****    0 ROOT
