@<TRIPOS>MOLECULE
MOL
  179   176     1     0     0
SMALL
resp


@<TRIPOS>ATOM
      1 C1          0.2740    4.4550    4.7990 c3        1 MOL     -0.336519
      2 C2         -0.2930    3.8880    3.5240 c         1 MOL      0.620076
      3 O1          0.4390    3.7980    2.5110 o         1 MOL     -0.543618
      4 H1          0.8320    3.6790    5.3240 hc        1 MOL      0.090928
      5 H2          0.9410    5.2840    4.5640 hc        1 MOL      0.090928
      6 H3         -0.5390    4.8090    5.4330 hc        1 MOL      0.090928
      7 N1         -1.4690    3.2780    3.4910 n         1 MOL     -0.528474
      8 C3         -2.0390    2.6210    2.2750 c3        1 MOL      0.091612
      9 C4         -2.9850    3.5950    1.4520 c         1 MOL      0.426087
     10 O2         -4.1970    3.4290    1.4240 o         1 MOL     -0.446986
     11 C5         -2.7110    1.3230    2.6890 c3        1 MOL      0.118017
     12 C6         -3.3260    0.5670    1.4830 c         1 MOL      0.639396
     13 O3         -2.7190    0.4290    0.4610 o         1 MOL     -0.733767
     14 O4         -4.3760   -0.0640    1.6760 o         1 MOL     -0.733767
     15 H4         -2.0610    3.2940    4.3010 hn        1 MOL      0.305791
     16 H5         -1.1600    2.3630    1.6890 h1        1 MOL      0.020010
     17 H6         -3.4030    1.4840    3.5180 hc        1 MOL     -0.032974
     18 H7         -1.8970    0.7440    3.1270 hc        1 MOL     -0.032974
     19 N2         -2.3060    4.5900    0.8280 n         1 MOL     -0.372337
     20 C7         -2.9680    5.7850    0.2800 c3        1 MOL      0.023164
     21 C8         -3.8080    5.5170   -0.9480 c         1 MOL      0.430611
     22 O5         -4.9110    6.0700   -0.9310 o         1 MOL     -0.517573
     23 C9         -1.9060    6.9340    0.0880 c3        1 MOL     -0.273018
     24 C10        -1.2880    7.3420    1.4990 c3        1 MOL      0.061762
     25 C11        -0.3590    8.5910    1.3620 c3        1 MOL      0.044173
     26 C12        -1.1530    9.8500    1.0730 c3        1 MOL      0.016369
     27 N3         -0.4520   11.0390    1.5040 n4        1 MOL     -0.398096
     28 H8         -1.3020    4.5850    0.9230 hn        1 MOL      0.314228
     29 H9         -3.6100    6.1560    1.0810 h1        1 MOL      0.103203
     30 H10        -2.4450    7.7380   -0.4160 hc        1 MOL      0.099695
     31 H11        -1.0690    6.5800   -0.5240 hc        1 MOL      0.099695
     32 H12        -0.7130    6.5220    1.9320 hc        1 MOL     -0.012102
     33 H13        -2.0920    7.6210    2.1870 hc        1 MOL     -0.012102
     34 H14         0.4060    8.4280    0.5930 hc        1 MOL      0.024446
     35 H15         0.2030    8.6810    2.2830 hc        1 MOL      0.024446
     36 H16        -2.1590    9.7710    1.4910 hx        1 MOL      0.090792
     37 H17        -1.3480    9.8950    0.0090 hx        1 MOL      0.090792
     38 H18         0.4100   11.1250    0.9830 hn        1 MOL      0.339941
     39 H19        -1.0920   11.7630    1.2050 hn        1 MOL      0.339941
     40 H20        -0.2710   11.2480    2.4730 hn        1 MOL      0.339941
     41 N4         -3.4060    4.5350   -1.8200 n         1 MOL     -0.262063
     42 C13        -4.2860    3.9680   -2.8480 c3        1 MOL     -0.104482
     43 C14        -5.5070    3.1810   -2.3410 c         1 MOL      0.548409
     44 O6         -6.5870    3.3720   -2.9180 o         1 MOL     -0.550493
     45 C15        -3.4370    3.0960   -3.7730 c3        1 MOL     -0.256037
     46 C16        -2.6920    1.9900   -3.0600 c         1 MOL      0.817043
     47 O7         -2.8530    0.7910   -3.2710 o         1 MOL     -0.737358
     48 O8         -1.8140    2.3290   -2.2470 o         1 MOL     -0.737358
     49 H21        -2.5450    4.0260   -1.7240 hn        1 MOL      0.196549
     50 H22        -4.6230    4.7230   -3.5500 h1        1 MOL      0.107323
     51 H23        -2.7150    3.7520   -4.2590 hc        1 MOL      0.075401
     52 H24        -3.9620    2.5020   -4.5270 hc        1 MOL      0.075401
     53 N5         -5.3220    2.4980   -1.2030 n         1 MOL     -0.110932
     54 C17        -6.3830    1.7830   -0.5090 c3        1 MOL     -0.094015
     55 C18        -6.6390    0.4290   -1.0880 c         1 MOL      0.565157
     56 O9         -7.6080    0.2740   -1.8290 o         1 MOL     -0.551861
     57 H25        -4.4370    2.5880   -0.7260 hn        1 MOL      0.118418
     58 H26        -7.3310    2.3200   -0.4230 h1        1 MOL      0.074295
     59 H27        -6.0940    1.6330    0.5310 h1        1 MOL      0.074295
     60 N6         -5.8440   -0.6060   -0.7550 n         1 MOL     -0.391700
     61 C19        -6.1630   -1.9660   -1.1070 c3        1 MOL     -0.026157
     62 C20        -5.8490   -2.9500    0.0390 c         1 MOL      0.353822
     63 O10        -6.0180   -4.1330   -0.1580 o         1 MOL     -0.468455
     64 C21        -5.5420   -2.3890   -2.4430 c3        1 MOL     -0.151051
     65 C22        -4.0540   -2.5500   -2.2410 c         1 MOL      0.571912
     66 N7         -3.6310   -3.7230   -2.5100 n         1 MOL     -0.711904
     67 O11        -3.3040   -1.6980   -1.8380 o         1 MOL     -0.593835
     68 H28        -5.1260   -0.3580   -0.0920 hn        1 MOL      0.182039
     69 H29        -7.2460   -2.0490   -1.2280 h1        1 MOL      0.117947
     70 H30        -5.7000   -1.5950   -3.1680 hc        1 MOL      0.091118
     71 H31        -6.0360   -3.2440   -2.9180 hc        1 MOL      0.091118
     72 H32        -4.2250   -4.3420   -3.0500 hn        1 MOL      0.352320
     73 H33        -2.6260   -3.8040   -2.4220 hn        1 MOL      0.352320
     74 N8         -5.3760   -2.4930    1.2120 n         1 MOL     -0.210187
     75 C23        -5.0660   -3.2950    2.4350 c3        1 MOL     -0.388207
     76 C24        -3.6340   -3.9410    2.5450 c         1 MOL      0.595866
     77 O12        -3.3890   -4.7440    3.4350 o         1 MOL     -0.564579
     78 H34        -5.2250   -1.4960    1.2690 hn        1 MOL      0.305957
     79 H35        -5.8310   -4.0670    2.3780 h1        1 MOL      0.165608
     80 H36        -5.1900   -2.6610    3.3120 h1        1 MOL      0.165608
     81 N9         -2.8100   -3.6260    1.5540 n         1 MOL     -0.384801
     82 C25        -1.3970   -4.0500    1.6080 c3        1 MOL      0.303202
     83 C26        -0.4660   -2.9390    1.1970 c         1 MOL      0.348765
     84 O13        -0.8600   -2.0540    0.4540 o         1 MOL     -0.585395
     85 C27        -1.0920   -5.2650    0.6660 c3        1 MOL     -0.084209
     86 C28        -2.1870   -6.3610    0.6500 ca        1 MOL     -0.091882
     87 C29        -3.2970   -6.2790   -0.2490 ca        1 MOL     -0.010777
     88 C30        -2.0250   -7.5360    1.3480 ca        1 MOL     -0.010777
     89 C31        -4.2950   -7.2720   -0.3600 ca        1 MOL     -0.427790
     90 C32        -2.9120   -8.6270    1.2260 ca        1 MOL     -0.427790
     91 C33        -4.0940   -8.4190    0.4410 ca        1 MOL      0.493305
     92 O14        -5.0120   -9.3990    0.3480 oh        1 MOL     -0.481886
     93 H37        -3.1340   -2.9350    0.8890 hn        1 MOL      0.393881
     94 H38        -1.1450   -4.2380    2.6520 h1        1 MOL     -0.003957
     95 H39        -0.1830   -5.7320    1.0540 hc        1 MOL      0.017780
     96 H40        -0.8850   -4.9010   -0.3420 hc        1 MOL      0.017780
     97 H41        -3.4260   -5.3160   -0.7070 ha        1 MOL      0.089012
     98 H42        -1.1440   -7.7090    1.9440 ha        1 MOL      0.089012
     99 H43        -5.2240   -7.1720   -0.8990 ha        1 MOL      0.189661
    100 H44        -2.7260   -9.5030    1.8170 ha        1 MOL      0.189661
    101 H45        -4.7720  -10.0850    0.9710 ho        1 MOL      0.338983
    102 N10         0.7630   -3.0660    1.6500 n         1 MOL     -0.373633
    103 C34         1.8790   -2.1650    1.4330 c3        1 MOL     -0.034816
    104 C35         3.1610   -2.9980    1.1100 c         1 MOL      0.469227
    105 O15         3.5230   -3.9040    1.8690 o         1 MOL     -0.513702
    106 C36         2.0670   -1.2660    2.6770 c3        1 MOL      0.023174
    107 C37         0.8520   -0.6270    3.2840 c3        1 MOL      0.223563
    108 C38         3.0700   -0.0950    2.3860 c3        1 MOL     -0.427969
    109 C39         1.0840   -0.1540    4.7660 c3        1 MOL     -0.036045
    110 H46         0.9120   -3.8820    2.2310 hn        1 MOL      0.277888
    111 H47         1.6020   -1.5580    0.5650 h1        1 MOL      0.081519
    112 H48         2.4740   -1.9300    3.4470 hc        1 MOL      0.017947
    113 H49         0.0850   -1.4020    3.2650 hc        1 MOL     -0.016496
    114 H50         0.4780    0.1130    2.5660 hc        1 MOL     -0.016496
    115 H51         2.6040    0.5210    1.6180 hc        1 MOL      0.118591
    116 H52         3.2420    0.5300    3.2680 hc        1 MOL      0.118591
    117 H53         4.0680   -0.4800    2.1510 hc        1 MOL      0.118591
    118 H54         1.0730   -1.0690    5.3570 hc        1 MOL     -0.003691
    119 H55         1.8950    0.5280    4.9870 hc        1 MOL     -0.003691
    120 H56         0.1260    0.3280    5.0040 hc        1 MOL     -0.003691
    121 N11         3.8770   -2.6440    0.0330 n         1 MOL     -0.346033
    122 C40         5.2090   -3.2240   -0.3360 c3        1 MOL      0.025742
    123 C41         6.3870   -2.4220    0.2680 c         1 MOL      0.531589
    124 O16         6.1680   -1.3590    0.8550 o         1 MOL     -0.402092
    125 C42         5.2310   -3.3910   -1.9080 c3        1 MOL     -0.094959
    126 O17         5.2740   -2.1960   -2.5590 oh        1 MOL     -0.481667
    127 H57         3.4660   -1.9310   -0.5580 hn        1 MOL      0.342553
    128 H58         5.2710   -4.1960    0.1560 h1        1 MOL      0.078265
    129 H59         4.3540   -3.9910   -2.1780 h1        1 MOL      0.067275
    130 H60         6.1790   -3.7870   -2.2560 h1        1 MOL      0.067275
    131 H61         5.4350   -2.4570   -3.4760 ho        1 MOL      0.409191
    132 N12         7.5820   -3.0320    0.0840 n         1 MOL     -0.465023
    133 C43         8.8320   -2.4020    0.5400 c3        1 MOL      0.124245
    134 C44         9.0350   -1.0190   -0.1420 c         1 MOL      0.487498
    135 O18         9.4070   -0.0010    0.5380 o         1 MOL     -0.528444
    136 C45         9.9230   -3.4190    0.2450 c3        1 MOL     -0.249947
    137 H62         7.5530   -3.8670   -0.4900 hn        1 MOL      0.276496
    138 H63         8.8680   -2.3020    1.6230 h1        1 MOL      0.084612
    139 H64        10.6760   -3.3360    1.0290 hc        1 MOL      0.075882
    140 H65         9.6410   -4.4780    0.2200 hc        1 MOL      0.075882
    141 H66        10.5130   -3.0960   -0.6100 hc        1 MOL      0.075882
    142 N13         8.7000   -0.8270   -1.4330 n         1 MOL     -0.380704
    143 C46         9.0180    0.4930   -2.1130 c3        1 MOL      0.145766
    144 C47         7.9480    1.5490   -1.8440 c         1 MOL      0.401844
    145 O19         8.3610    2.6600   -1.6530 o         1 MOL     -0.510994
    146 C48         9.1170    0.2790   -3.6340 c3        1 MOL     -0.300259
    147 H67         8.3000   -1.5450   -2.0030 hn        1 MOL      0.255686
    148 H68         9.9390    0.8970   -1.6820 h1        1 MOL      0.098772
    149 H69         9.2890    1.2040   -4.1890 hc        1 MOL      0.078688
    150 H70         9.9570   -0.4090   -3.7480 hc        1 MOL      0.078688
    151 H71         8.2720   -0.2440   -4.0830 hc        1 MOL      0.078688
    152 N14         6.7120    1.1590   -1.7570 n         1 MOL     -0.175386
    153 C49         5.5720    1.9320   -1.2290 c3        1 MOL     -0.154175
    154 C50         5.8200    2.4090    0.2140 c         1 MOL      0.451158
    155 O20         5.5980    3.5580    0.4710 o         1 MOL     -0.540966
    156 C51         4.2510    1.1280   -1.3930 c3        1 MOL      0.145167
    157 C52         3.0080    1.9430   -1.1180 c3        1 MOL     -0.235771
    158 C53         1.8410    1.2030   -1.5360 c         1 MOL      0.826376
    159 O21         0.9400    0.9820   -0.7130 o         1 MOL     -0.783771
    160 O22         1.5900    0.7640   -2.6930 o         1 MOL     -0.783771
    161 H72         6.5790    0.1990   -2.0340 hn        1 MOL      0.124458
    162 H73         5.3650    2.7370   -1.9350 h1        1 MOL      0.122593
    163 H74         4.3340    0.1640   -0.9000 hc        1 MOL     -0.049406
    164 H75         4.1910    0.8320   -2.4430 hc        1 MOL     -0.049406
    165 H76         3.1300    2.8630   -1.6780 hc        1 MOL      0.070700
    166 H77         2.8540    2.1690   -0.0630 hc        1 MOL      0.070700
    167 N15         6.3360    1.5210    1.0690 n         1 MOL      0.037027
    168 C54         6.7270    1.8770    2.4510 c3        1 MOL     -0.297635
    169 H78         7.2790    1.0490    2.8970 h1        1 MOL      0.108138
    170 H79         7.3570    2.7650    2.4330 h1        1 MOL      0.108138
    171 H80         5.8320    2.0760    3.0420 h1        1 MOL      0.108138
    172 H81         6.4870    0.5560    0.8150 hn        1 MOL      0.029533
    173 Ca1        -1.2260   -0.2350   -1.5620 Ca        1 MOL      1.772833
    174 O23        -0.4300   -0.7260   -4.1440 oh        1 MOL     -0.824898
    175 H82         0.3340   -1.2950   -4.2380 ho        1 MOL      0.403543
    176 H83        -0.4710   -0.2410   -4.9660 ho        1 MOL      0.403543
    177 O24        -0.1500   -2.8370   -2.1680 oh        1 MOL     -0.824898
    178 H84         0.6790   -2.9500   -2.6300 ho        1 MOL      0.403543
    179 H85        -0.5680   -3.7000   -2.2300 ho        1 MOL      0.403543
@<TRIPOS>BOND
     1    1    2 1   
     2    1    4 1   
     3    1    5 1   
     4    1    6 1   
     5    2    3 2   
     6    2    7 1   
     7    7    8 1   
     8    7   15 1   
     9    8    9 1   
    10    8   11 1   
    11    8   16 1   
    12    9   10 2   
    13    9   19 1   
    14   11   12 1   
    15   11   17 1   
    16   11   18 1   
    17   12   13 1   
    18   12   14 1   
    19   19   20 1   
    20   19   28 1   
    21   20   21 1   
    22   20   23 1   
    23   20   29 1   
    24   21   22 2   
    25   21   41 1   
    26   23   24 1   
    27   23   30 1   
    28   23   31 1   
    29   24   25 1   
    30   24   32 1   
    31   24   33 1   
    32   25   26 1   
    33   25   34 1   
    34   25   35 1   
    35   26   27 1   
    36   26   36 1   
    37   26   37 1   
    38   27   38 1   
    39   27   39 1   
    40   27   40 1   
    41   41   42 1   
    42   41   49 1   
    43   42   43 1   
    44   42   45 1   
    45   42   50 1   
    46   43   44 2   
    47   43   53 1   
    48   45   46 1   
    49   45   51 1   
    50   45   52 1   
    51   46   47 1   
    52   46   48 1   
    53   53   54 1   
    54   53   57 1   
    55   54   55 1   
    56   54   58 1   
    57   54   59 1   
    58   55   56 2   
    59   55   60 1   
    60   60   61 1   
    61   60   68 1   
    62   61   62 1   
    63   61   64 1   
    64   61   69 1   
    65   62   63 2   
    66   62   74 1   
    67   64   65 1   
    68   64   70 1   
    69   64   71 1   
    70   65   66 1   
    71   65   67 2   
    72   66   72 1   
    73   66   73 1   
    74   74   75 1   
    75   74   78 1   
    76   75   76 1   
    77   75   79 1   
    78   75   80 1   
    79   76   77 2   
    80   76   81 1   
    81   81   82 1   
    82   81   93 1   
    83   82   83 1   
    84   82   85 1   
    85   82   94 1   
    86   83   84 2   
    87   83  102 1   
    88   85   86 1   
    89   85   95 1   
    90   85   96 1   
    91   86   87 ar  
    92   86   88 ar  
    93   87   89 ar  
    94   87   97 1   
    95   88   90 ar  
    96   88   98 1   
    97   89   91 ar  
    98   89   99 1   
    99   90   91 ar  
   100   90  100 1   
   101   91   92 1   
   102   92  101 1   
   103  102  103 1   
   104  102  110 1   
   105  103  104 1   
   106  103  106 1   
   107  103  111 1   
   108  104  105 2   
   109  104  121 1   
   110  106  107 1   
   111  106  108 1   
   112  106  112 1   
   113  107  109 1   
   114  107  113 1   
   115  107  114 1   
   116  108  115 1   
   117  108  116 1   
   118  108  117 1   
   119  109  118 1   
   120  109  119 1   
   121  109  120 1   
   122  121  122 1   
   123  121  127 1   
   124  122  123 1   
   125  122  125 1   
   126  122  128 1   
   127  123  124 2   
   128  123  132 1   
   129  125  126 1   
   130  125  129 1   
   131  125  130 1   
   132  126  131 1   
   133  132  133 1   
   134  132  137 1   
   135  133  134 1   
   136  133  136 1   
   137  133  138 1   
   138  134  135 2   
   139  134  142 1   
   140  136  139 1   
   141  136  140 1   
   142  136  141 1   
   143  142  143 1   
   144  142  147 1   
   145  143  144 1   
   146  143  146 1   
   147  143  148 1   
   148  144  145 2   
   149  144  152 1   
   150  146  149 1   
   151  146  150 1   
   152  146  151 1   
   153  152  153 1   
   154  152  161 1   
   155  153  154 1   
   156  153  156 1   
   157  153  162 1   
   158  154  155 2   
   159  154  167 1   
   160  156  157 1   
   161  156  163 1   
   162  156  164 1   
   163  157  158 1   
   164  157  165 1   
   165  157  166 1   
   166  158  159 1   
   167  158  160 1   
   168  167  168 1   
   169  167  172 1   
   170  168  169 1   
   171  168  170 1   
   172  168  171 1   
   173  174  175 1   
   174  174  176 1   
   175  177  178 1   
   176  177  179 1   
@<TRIPOS>SUBSTRUCTURE
     1 MOL         1 TEMP              0 ****  ****    0 ROOT
