@<TRIPOS>MOLECULE
MOL
  189   185     1     0     0
SMALL
resp


@<TRIPOS>ATOM
      1 C1         -0.3550    2.8140   -5.1490 c3        1 MOL     -0.309212
      2 C2          0.2580    2.5200   -3.8090 c         1 MOL      0.737055
      3 O1         -0.2050    2.8440   -2.7060 o         1 MOL     -0.600202
      4 H1         -1.3410    2.3530   -5.2050 hc        1 MOL      0.083197
      5 H2         -0.4510    3.8920   -5.2760 hc        1 MOL      0.083197
      6 H3          0.2810    2.4110   -5.9360 hc        1 MOL      0.083197
      7 N1          1.4140    1.8330   -3.7710 n         1 MOL     -0.569894
      8 C3          2.2550    1.5430   -2.5840 c3        1 MOL      0.098673
      9 C4          2.9650    2.8090   -2.0580 c         1 MOL      0.449921
     10 O2          3.9040    3.2870   -2.6350 o         1 MOL     -0.546576
     11 C5          3.2320    0.3580   -2.9270 c3        1 MOL     -0.241662
     12 C6          4.0160   -0.0540   -1.6510 c         1 MOL      0.739782
     13 O3          3.5770    0.2580   -0.5130 o         1 MOL     -0.649258
     14 O4          5.0490   -0.7600   -1.8110 o         1 MOL     -0.649258
     15 H4          1.8180    1.5520   -4.6580 hn        1 MOL      0.302198
     16 H5          1.6420    1.0380   -1.8270 h1        1 MOL      0.050065
     17 H6          3.9740    0.7190   -3.6440 hc        1 MOL      0.050352
     18 H7          2.7500   -0.5280   -3.3380 hc        1 MOL      0.050352
     19 N2          2.3590    3.3470   -0.9620 n         1 MOL     -0.046447
     20 C7          2.7440    4.6720   -0.4840 c3        1 MOL     -0.024522
     21 C8          3.5880    4.6450    0.7650 c         1 MOL      0.398153
     22 O5          4.4320    5.4950    0.9420 o         1 MOL     -0.536200
     23 C9          1.4060    5.4470   -0.2090 c3        1 MOL      0.041806
     24 C10         0.5290    5.7180   -1.3900 c3        1 MOL      0.047735
     25 C11         1.3210    6.5310   -2.4400 c3        1 MOL     -0.570554
     26 C12         2.1100    7.8200   -2.0330 c3        1 MOL      0.332406
     27 N3          2.7140    8.5740   -3.1540 n4        1 MOL     -0.482338
     28 H8          1.5430    2.9060   -0.5680 hn        1 MOL      0.180606
     29 H9          3.3390    5.2630   -1.1830 h1        1 MOL      0.035909
     30 H10         1.5870    6.3260    0.4240 hc        1 MOL     -0.008688
     31 H11         0.8470    4.7440    0.4130 hc        1 MOL     -0.008688
     32 H12        -0.4090    6.1380   -1.0130 hc        1 MOL      0.064814
     33 H13         0.1130    4.8260   -1.8630 hc        1 MOL      0.064814
     34 H14         0.6270    6.7060   -3.2610 hc        1 MOL      0.145704
     35 H15         2.0900    5.9000   -2.8770 hc        1 MOL      0.145704
     36 H16         2.8880    7.6140   -1.2940 hx        1 MOL      0.030828
     37 H17         1.4600    8.4260   -1.4100 hx        1 MOL      0.030828
     38 H18         3.4990    8.0140   -3.4670 hn        1 MOL      0.353476
     39 H19         2.1180    8.7140   -3.9530 hn        1 MOL      0.353476
     40 H20         3.1780    9.4210   -2.8620 hn        1 MOL      0.353476
     41 N4          3.3910    3.6690    1.6910 n         1 MOL     -0.280905
     42 C13         4.3270    3.4490    2.7870 c3        1 MOL      0.123811
     43 C14         5.5810    2.5890    2.4180 c         1 MOL      0.423123
     44 O6          6.6540    2.7480    3.0430 o         1 MOL     -0.522741
     45 C15         3.6640    2.7600    3.9650 c3        1 MOL     -0.348063
     46 C16         3.0010    1.3860    3.7520 c         1 MOL      0.758081
     47 O7          2.6510    0.6000    4.6970 o         1 MOL     -0.688283
     48 O8          2.7400    1.1180    2.5510 o         1 MOL     -0.688283
     49 H21         2.7170    2.9300    1.5470 hn        1 MOL      0.192228
     50 H22         4.7650    4.4100    3.0840 h1        1 MOL      0.066094
     51 H23         2.8360    3.4150    4.2480 hc        1 MOL      0.073589
     52 H24         4.3180    2.6020    4.8130 hc        1 MOL      0.073589
     53 N5          5.4850    1.9490    1.2090 n         1 MOL     -0.109850
     54 C17         6.6470    1.4520    0.5230 c3        1 MOL     -0.206460
     55 C18         7.1540    0.1110    1.0470 c         1 MOL      0.480139
     56 O9          8.3710   -0.1340    1.0420 o         1 MOL     -0.575577
     57 H25         4.5770    1.7710    0.7970 hn        1 MOL      0.087735
     58 H26         7.4110    2.2110    0.3730 h1        1 MOL      0.115414
     59 H27         6.3320    1.1980   -0.4970 h1        1 MOL      0.115414
     60 N6          6.3110   -0.7380    1.5390 n         1 MOL     -0.108171
     61 C19         6.6360   -2.0580    2.0310 c3        1 MOL     -0.163779
     62 C20         6.7830   -3.0870    0.8720 c         1 MOL      0.500873
     63 O10         7.3780   -4.1170    1.0300 o         1 MOL     -0.555235
     64 C21         5.6390   -2.6200    3.0990 c3        1 MOL     -0.072243
     65 C22         4.2000   -2.5950    2.5950 c         1 MOL      0.741683
     66 O11         3.4090   -3.0000    3.4260 o         1 MOL     -0.695395
     67 O12         3.8230   -2.1920    1.4840 o         1 MOL     -0.695395
     68 H28         5.3270   -0.5280    1.5270 hn        1 MOL      0.094350
     69 H29         7.6410   -2.0600    2.4650 h1        1 MOL      0.122446
     70 H30         5.6110   -1.9540    3.9600 hc        1 MOL      0.055067
     71 H31         5.9270   -3.5800    3.5040 hc        1 MOL      0.055067
     72 N7          6.3320   -2.8320   -0.3380 n         1 MOL     -0.150304
     73 C23         6.3530   -3.7560   -1.4890 c3        1 MOL     -0.066929
     74 C24         4.9820   -4.3950   -1.6350 c         1 MOL      0.483216
     75 O13         4.9480   -5.5480   -2.1710 o         1 MOL     -0.574181
     76 H32         5.6940   -2.0520   -0.4260 hn        1 MOL      0.097812
     77 H33         7.2150   -4.4190   -1.3470 h1        1 MOL      0.082143
     78 H34         6.5550   -3.2380   -2.4340 h1        1 MOL      0.082143
     79 N8          3.8900   -3.8620   -1.0510 n         1 MOL     -0.176357
     80 C25         2.5430   -4.4900   -1.1140 c3        1 MOL     -0.189901
     81 C26         1.4020   -3.4560   -1.2500 c         1 MOL      0.685773
     82 O14         1.5940   -2.3810   -0.7000 o         1 MOL     -0.630614
     83 C27         2.2560   -5.4810    0.0020 c3        1 MOL      0.463534
     84 C28         2.6600   -6.9860   -0.2950 c3        1 MOL     -0.603147
     85 O15         3.0350   -5.1500    1.1600 oh        1 MOL     -0.548764
     86 H35         3.9820   -2.9330   -0.6710 hn        1 MOL      0.172309
     87 H36         2.4930   -5.0340   -2.0610 h1        1 MOL      0.077396
     88 H37         1.2160   -5.2910    0.2440 h1        1 MOL     -0.051747
     89 H38         3.1240   -4.1980    1.1350 ho        1 MOL      0.337770
     90 H39         3.7340   -7.1760   -0.3700 hc        1 MOL      0.161425
     91 H40         2.3250   -7.6440    0.5040 hc        1 MOL      0.161425
     92 H41         2.3430   -7.2560   -1.2970 hc        1 MOL      0.161425
     93 N9          0.2740   -3.7840   -1.8920 n         1 MOL     -0.536091
     94 C29        -0.8510   -2.8420   -2.0690 c3        1 MOL      0.026784
     95 C30        -2.0680   -3.4590   -1.2560 c         1 MOL      0.495311
     96 O16        -2.2770   -4.6930   -1.3260 o         1 MOL     -0.552372
     97 C31        -1.1430   -2.5040   -3.5270 c3        1 MOL      0.323546
     98 C32         0.0720   -1.9940   -4.3520 c3        1 MOL      0.157401
     99 C33        -2.3260   -1.4720   -3.6690 c3        1 MOL     -0.575879
    100 C34        -0.1310   -2.3820   -5.7860 c3        1 MOL     -0.407968
    101 H42         0.1720   -4.7180   -2.2500 hn        1 MOL      0.300370
    102 H43        -0.6130   -1.9110   -1.5590 h1        1 MOL      0.016891
    103 H44        -1.5110   -3.4310   -3.9770 hc        1 MOL     -0.033268
    104 H45         0.9330   -2.5440   -3.9650 hc        1 MOL     -0.004824
    105 H46         0.1270   -0.9040   -4.3190 hc        1 MOL     -0.004824
    106 H47        -3.1400   -1.8460   -3.0470 hc        1 MOL      0.107900
    107 H48        -2.0220   -0.4560   -3.3980 hc        1 MOL      0.107900
    108 H49        -2.7520   -1.3580   -4.6570 hc        1 MOL      0.107900
    109 H50         0.4900   -1.7140   -6.3830 hc        1 MOL      0.093267
    110 H51         0.0080   -3.4490   -5.9360 hc        1 MOL      0.093267
    111 H52        -1.1390   -2.0660   -6.0780 hc        1 MOL      0.093267
    112 N10        -2.7750   -2.5950   -0.5500 n         1 MOL     -0.113575
    113 C35        -3.9590   -2.8540    0.2910 c3        1 MOL      0.032802
    114 C36        -5.3210   -2.4330   -0.3590 c         1 MOL      0.299568
    115 O17        -5.2130   -1.6900   -1.3510 o         1 MOL     -0.353083
    116 C37        -3.9320   -2.3240    1.7230 c3        1 MOL      0.154429
    117 C38        -2.5960   -2.5410    2.4060 c3        1 MOL     -0.341746
    118 O18        -3.9780   -0.8970    1.6200 oh        1 MOL     -0.485229
    119 H53        -2.5240   -1.6220   -0.6150 hn        1 MOL      0.181692
    120 H54        -4.0040   -3.9450    0.3410 h1        1 MOL      0.039562
    121 H55        -4.7260   -2.7750    2.3220 h1        1 MOL      0.059066
    122 H56        -3.3400   -0.5260    2.2320 ho        1 MOL      0.382863
    123 H57        -2.6850   -2.1260    3.4160 hc        1 MOL      0.088085
    124 H58        -2.3450   -3.5950    2.4750 hc        1 MOL      0.088085
    125 H59        -1.7860   -1.9570    1.9680 hc        1 MOL      0.088085
    126 N11        -6.4670   -2.8770    0.1500 n         1 MOL     -0.203107
    127 C39        -7.7790   -2.3780   -0.3120 c3        1 MOL     -0.299347
    128 C40        -7.8650   -0.8830   -0.1430 c         1 MOL      0.392897
    129 O19        -8.3710   -0.1740   -0.9740 o         1 MOL     -0.449139
    130 C41        -8.9760   -2.9720    0.5060 c3        1 MOL      0.390314
    131 C42        -9.0830   -4.4270    0.1670 c3        1 MOL     -0.386630
    132 O20        -8.7820   -2.8850    1.9330 oh        1 MOL     -0.584697
    133 H60        -6.4880   -3.5970    0.8630 hn        1 MOL      0.273661
    134 H61        -7.8970   -2.6400   -1.3680 h1        1 MOL      0.184094
    135 H62        -9.9280   -2.5590    0.1470 h1        1 MOL      0.046687
    136 H63        -9.6900   -2.7660    2.2200 ho        1 MOL      0.382034
    137 H64        -8.2880   -4.8880    0.7500 hc        1 MOL      0.102924
    138 H65       -10.0370   -4.6750    0.6330 hc        1 MOL      0.102924
    139 H66        -9.0560   -4.6720   -0.9020 hc        1 MOL      0.102924
    140 N12        -7.3290   -0.3900    0.9680 n         1 MOL     -0.291682
    141 C43        -7.1840    1.0200    1.2510 c3        1 MOL     -0.150713
    142 C44        -6.3000    1.8190    0.2630 c         1 MOL      0.290868
    143 O21        -6.7340    2.8760   -0.2460 o         1 MOL     -0.476127
    144 C45        -6.7720    1.2030    2.7300 c3        1 MOL      0.142213
    145 C46        -6.9460    2.7110    3.1190 c3        1 MOL     -0.001787
    146 C47        -7.0420    3.1600    4.6410 c3        1 MOL      0.075352
    147 C48        -5.6860    2.9160    5.3410 c3        1 MOL      0.041452
    148 N13        -5.7880    3.1360    6.8100 n4        1 MOL     -0.464268
    149 H67        -6.7660   -0.9830    1.5580 hn        1 MOL      0.206929
    150 H68        -8.1920    1.4260    1.1950 h1        1 MOL      0.147667
    151 H69        -5.7120    0.9880    2.7620 hc        1 MOL     -0.065656
    152 H70        -7.3450    0.5510    3.3890 hc        1 MOL     -0.065656
    153 H71        -7.8580    3.0920    2.6330 hc        1 MOL      0.022859
    154 H72        -6.0980    3.2230    2.6810 hc        1 MOL      0.022859
    155 H73        -7.8160    2.6100    5.1720 hc        1 MOL      0.007176
    156 H74        -7.4330    4.1820    4.6110 hc        1 MOL      0.007176
    157 H75        -4.9290    3.5300    4.8580 hx        1 MOL      0.069518
    158 H76        -5.4620    1.8590    5.1870 hx        1 MOL      0.069518
    159 H77        -4.8770    3.0170    7.2300 hn        1 MOL      0.344657
    160 H78        -6.1170    4.0640    7.0250 hn        1 MOL      0.344657
    161 H79        -6.3980    2.4000    7.1310 hn        1 MOL      0.344657
    162 N14        -5.1050    1.3280    0.0140 n         1 MOL      0.164183
    163 C49        -4.2530    1.9630   -1.0120 c3        1 MOL     -0.480924
    164 C50        -4.9400    2.0310   -2.4310 c         1 MOL      0.499376
    165 O22        -4.9280    3.1320   -2.9740 o         1 MOL     -0.508090
    166 C51        -2.8280    1.4430   -1.0060 c3        1 MOL      0.150340
    167 C52        -1.9150    1.9310    0.0740 c3        1 MOL     -0.390141
    168 C53        -0.5450    1.2080    0.1730 c         1 MOL      0.807291
    169 O23        -0.4740   -0.0180   -0.1160 o         1 MOL     -0.748966
    170 O24         0.5480    1.7520    0.4410 o         1 MOL     -0.748966
    171 H80        -4.8980    0.4940    0.5530 hn        1 MOL      0.102175
    172 H81        -4.0620    3.0210   -0.8190 h1        1 MOL      0.153271
    173 H82        -2.4180    1.7970   -1.9530 hc        1 MOL      0.069037
    174 H83        -2.8290    0.3640   -1.1210 hc        1 MOL      0.069037
    175 H84        -2.4490    1.8750    1.0170 hc        1 MOL      0.077207
    176 H85        -1.8220    3.0100   -0.0620 hc        1 MOL      0.077207
    177 N15        -5.6280    0.9240   -2.8970 n         1 MOL     -0.147441
    178 C54        -6.4200    1.0670   -4.1380 c3        1 MOL     -0.258784
    179 H86        -7.2720    0.3880   -4.1040 h1        1 MOL      0.105428
    180 H87        -6.7770    2.0930   -4.2250 h1        1 MOL      0.105428
    181 H88        -5.7970    0.8240   -4.9980 h1        1 MOL      0.105428
    182 H89        -5.6560    0.0380   -2.3950 hn        1 MOL      0.188794
    183 Ca1         1.7160   -0.5840    1.1020 Ca        1 MOL      1.717012
    184 O25         0.9630   -2.7780    2.4030 oh        1 MOL     -0.855955
    185 H90         0.2160   -2.9930    2.9580 ho        1 MOL      0.397662
    186 H91         1.7240   -3.0410    2.9110 ho        1 MOL      0.397662
    187 O26         0.0600   -0.0090    3.2340 oh        1 MOL     -0.855955
    188 H92        -0.8590    0.0070    3.4780 ho        1 MOL      0.397662
    189 H93         0.5260   -0.1760    4.0490 ho        1 MOL      0.397662
@<TRIPOS>BOND
     1    1    2 1   
     2    1    4 1   
     3    1    5 1   
     4    1    6 1   
     5    2    3 2   
     6    2    7 1   
     7    7    8 1   
     8    7   15 1   
     9    8    9 1   
    10    8   11 1   
    11    8   16 1   
    12    9   10 2   
    13    9   19 1   
    14   11   12 1   
    15   11   17 1   
    16   11   18 1   
    17   12   13 1   
    18   12   14 1   
    19   19   20 1   
    20   19   28 1   
    21   20   21 1   
    22   20   23 1   
    23   20   29 1   
    24   21   22 2   
    25   21   41 1   
    26   23   24 1   
    27   23   30 1   
    28   23   31 1   
    29   24   25 1   
    30   24   32 1   
    31   24   33 1   
    32   25   26 1   
    33   25   34 1   
    34   25   35 1   
    35   26   27 1   
    36   26   36 1   
    37   26   37 1   
    38   27   38 1   
    39   27   39 1   
    40   27   40 1   
    41   41   42 1   
    42   41   49 1   
    43   42   43 1   
    44   42   45 1   
    45   42   50 1   
    46   43   44 2   
    47   43   53 1   
    48   45   46 1   
    49   45   51 1   
    50   45   52 1   
    51   46   47 1   
    52   46   48 1   
    53   53   54 1   
    54   53   57 1   
    55   54   55 1   
    56   54   58 1   
    57   54   59 1   
    58   55   56 2   
    59   55   60 1   
    60   60   61 1   
    61   60   68 1   
    62   61   62 1   
    63   61   64 1   
    64   61   69 1   
    65   62   63 2   
    66   62   72 1   
    67   64   65 1   
    68   64   70 1   
    69   64   71 1   
    70   65   66 1   
    71   65   67 1   
    72   72   73 1   
    73   72   76 1   
    74   73   74 1   
    75   73   77 1   
    76   73   78 1   
    77   74   75 2   
    78   74   79 1   
    79   79   80 1   
    80   79   86 1   
    81   80   81 1   
    82   80   83 1   
    83   80   87 1   
    84   81   82 2   
    85   81   93 1   
    86   83   84 1   
    87   83   85 1   
    88   83   88 1   
    89   84   90 1   
    90   84   91 1   
    91   84   92 1   
    92   85   89 1   
    93   93   94 1   
    94   93  101 1   
    95   94   95 1   
    96   94   97 1   
    97   94  102 1   
    98   95   96 2   
    99   95  112 1   
   100   97   98 1   
   101   97   99 1   
   102   97  103 1   
   103   98  100 1   
   104   98  104 1   
   105   98  105 1   
   106   99  106 1   
   107   99  107 1   
   108   99  108 1   
   109  100  109 1   
   110  100  110 1   
   111  100  111 1   
   112  112  113 1   
   113  112  119 1   
   114  113  114 1   
   115  113  116 1   
   116  113  120 1   
   117  114  115 2   
   118  114  126 1   
   119  116  117 1   
   120  116  118 1   
   121  116  121 1   
   122  117  123 1   
   123  117  124 1   
   124  117  125 1   
   125  118  122 1   
   126  126  127 1   
   127  126  133 1   
   128  127  128 1   
   129  127  130 1   
   130  127  134 1   
   131  128  129 2   
   132  128  140 1   
   133  130  131 1   
   134  130  132 1   
   135  130  135 1   
   136  131  137 1   
   137  131  138 1   
   138  131  139 1   
   139  132  136 1   
   140  140  141 1   
   141  140  149 1   
   142  141  142 1   
   143  141  144 1   
   144  141  150 1   
   145  142  143 2   
   146  142  162 1   
   147  144  145 1   
   148  144  151 1   
   149  144  152 1   
   150  145  146 1   
   151  145  153 1   
   152  145  154 1   
   153  146  147 1   
   154  146  155 1   
   155  146  156 1   
   156  147  148 1   
   157  147  157 1   
   158  147  158 1   
   159  148  159 1   
   160  148  160 1   
   161  148  161 1   
   162  162  163 1   
   163  162  171 1   
   164  163  164 1   
   165  163  166 1   
   166  163  172 1   
   167  164  165 2   
   168  164  177 1   
   169  166  167 1   
   170  166  173 1   
   171  166  174 1   
   172  167  168 1   
   173  167  175 1   
   174  167  176 1   
   175  168  169 1   
   176  168  170 1   
   177  177  178 1   
   178  177  182 1   
   179  178  179 1   
   180  178  180 1   
   181  178  181 1   
   182  184  185 1   
   183  184  186 1   
   184  187  188 1   
   185  187  189 1   
@<TRIPOS>SUBSTRUCTURE
     1 MOL         1 TEMP              0 ****  ****    0 ROOT
