@<TRIPOS>MOLECULE
MOL
  186   183     1     0     0
SMALL
resp


@<TRIPOS>ATOM
      1 C1          0.5420    3.5730   -4.3790 c3        1 MOL     -0.339846
      2 C2          1.0840    3.1470   -3.0110 c         1 MOL      0.548574
      3 O1          0.6520    3.6330   -1.9550 o         1 MOL     -0.553248
      4 H1          1.3020    4.1500   -4.9070 hc        1 MOL      0.094761
      5 H2          0.2880    2.6880   -4.9620 hc        1 MOL      0.094761
      6 H3         -0.3490    4.1860   -4.2420 hc        1 MOL      0.094761
      7 N1          2.1920    2.3730   -3.0250 n         1 MOL     -0.400011
      8 C3          2.9340    1.7630   -1.8990 c3        1 MOL      0.122464
      9 C4          4.0250    2.7340   -1.3430 c         1 MOL      0.288505
     10 O2          5.1670    2.4260   -1.1850 o         1 MOL     -0.409965
     11 C5          3.5360    0.3740   -2.2790 c3        1 MOL      0.009941
     12 C6          4.0800   -0.3620   -1.0780 c         1 MOL      0.572834
     13 O3          5.2880   -0.6980   -1.1120 o         1 MOL     -0.675296
     14 O4          3.2950   -0.7670   -0.2040 o         1 MOL     -0.675296
     15 H4          2.6150    2.3240   -3.9510 hn        1 MOL      0.253765
     16 H5          2.2100    1.5790   -1.1040 h1        1 MOL      0.104954
     17 H6          4.3100    0.5690   -3.0160 hc        1 MOL     -0.001226
     18 H7          2.7770   -0.1400   -2.8670 hc        1 MOL     -0.001226
     19 N2          3.5900    3.9420   -1.0270 n         1 MOL     -0.248540
     20 C7          4.4310    4.9440   -0.3170 c3        1 MOL      0.060548
     21 C8          5.1060    4.4470    0.9860 c         1 MOL      0.360620
     22 O5          6.1020    5.0470    1.4170 o         1 MOL     -0.533860
     23 C9          3.6420    6.1580   -0.0250 c3        1 MOL     -0.084426
     24 C10         2.5380    6.5620   -0.9440 c3        1 MOL      0.251391
     25 C11         1.8600    7.9370   -0.7570 c3        1 MOL     -0.349688
     26 C12         2.8830    9.1190   -0.9940 c3        1 MOL     -0.127495
     27 N3          3.1590    9.1780   -2.4190 n4        1 MOL     -0.365292
     28 H8          2.6500    4.1600   -1.3190 hn        1 MOL      0.124764
     29 H9          5.2420    5.1710   -1.0230 h1        1 MOL      0.045390
     30 H10         4.3530    6.9820    0.0000 hc        1 MOL      0.028620
     31 H11         3.2070    5.9400    0.9500 hc        1 MOL      0.028620
     32 H12         1.7670    5.7910   -0.8690 hc        1 MOL     -0.019712
     33 H13         2.9300    6.6350   -1.9590 hc        1 MOL     -0.019712
     34 H14         1.2750    7.9630    0.1700 hc        1 MOL      0.153654
     35 H15         1.0440    8.0700   -1.4550 hc        1 MOL      0.153654
     36 H16         3.8020    8.9360   -0.4400 hx        1 MOL      0.149328
     37 H17         2.4200   10.0390   -0.6530 hx        1 MOL      0.149328
     38 H18         3.7240    8.3690   -2.6380 hn        1 MOL      0.337944
     39 H19         2.3310    9.2010   -2.9890 hn        1 MOL      0.337944
     40 H20         3.6470   10.0590   -2.5190 hn        1 MOL      0.337944
     41 N4          4.4560    3.4690    1.6740 n         1 MOL     -0.073285
     42 C13         4.7990    2.9820    2.9930 c3        1 MOL     -0.302240
     43 C14         5.6990    1.7290    2.8880 c         1 MOL      0.470823
     44 O6          6.1460    1.1410    3.8690 o         1 MOL     -0.499157
     45 C15         3.5850    2.7390    3.9440 c3        1 MOL      0.095445
     46 C16         2.6770    1.6200    3.3860 c         1 MOL      0.661119
     47 O7          2.9040    0.9330    2.3750 o         1 MOL     -0.661639
     48 O8          1.6540    1.4130    4.1120 o         1 MOL     -0.661639
     49 H21         3.5480    3.2240    1.2910 hn        1 MOL      0.181071
     50 H22         5.4200    3.7750    3.4060 h1        1 MOL      0.142747
     51 H23         3.0470    3.6810    4.1130 hc        1 MOL     -0.000024
     52 H24         3.9490    2.5270    4.9490 hc        1 MOL     -0.000024
     53 N5          6.1200    1.3910    1.6630 n         1 MOL     -0.099997
     54 C17         7.1770    0.3960    1.3090 c3        1 MOL     -0.170146
     55 C18         7.1240   -1.0350    1.8780 c         1 MOL      0.605920
     56 O9          7.9510   -1.3290    2.7500 o         1 MOL     -0.573693
     57 H25         5.8690    1.9950    0.9020 hn        1 MOL      0.157870
     58 H26         8.1950    0.7150    1.5410 h1        1 MOL      0.063993
     59 H27         7.1630    0.2190    0.2340 h1        1 MOL      0.063993
     60 N6          6.1960   -1.8060    1.3720 n         1 MOL     -0.376188
     61 C19         6.0400   -3.2320    1.7640 c3        1 MOL      0.027138
     62 C20         5.8360   -4.1570    0.5130 c         1 MOL      0.450142
     63 O10         5.9550   -5.3910    0.5580 o         1 MOL     -0.499903
     64 C21         4.9770   -3.3980    2.8450 c3        1 MOL     -0.060461
     65 C22         3.6970   -2.7970    2.5090 c         1 MOL      0.686788
     66 O11         3.1600   -3.1960    1.4410 o         1 MOL     -0.697585
     67 O12         3.0880   -1.9950    3.2440 o         1 MOL     -0.697585
     68 H28         5.5790   -1.4040    0.6810 hn        1 MOL      0.172393
     69 H29         6.9910   -3.5490    2.1910 h1        1 MOL      0.068280
     70 H30         5.2770   -2.8920    3.7610 hc        1 MOL      0.037219
     71 H31         4.8520   -4.4650    3.0340 hc        1 MOL      0.037219
     72 N7          5.7140   -3.6140   -0.7450 n         1 MOL     -0.393902
     73 C23         5.6100   -4.4460   -1.9850 c3        1 MOL      0.006294
     74 C24         4.2190   -5.0660   -2.1070 c         1 MOL      0.570557
     75 O13         4.1280   -6.0660   -2.8270 o         1 MOL     -0.578548
     76 H32         5.6860   -2.6110   -0.8490 hn        1 MOL      0.326692
     77 H33         6.3630   -5.2320   -2.0810 h1        1 MOL      0.050479
     78 H34         5.7480   -3.7280   -2.7910 h1        1 MOL      0.050479
     79 N8          3.2350   -4.5260   -1.3780 n         1 MOL     -0.454322
     80 C25         1.8900   -4.9610   -1.3790 c3        1 MOL     -0.123517
     81 C26         0.9320   -3.7420   -1.3350 c         1 MOL      0.731740
     82 O14         0.7110   -2.9990   -0.3630 o         1 MOL     -0.731744
     83 C27         1.6420   -5.9350   -0.1690 c3        1 MOL      0.313133
     84 C28         2.0160   -7.3570   -0.6070 c3        1 MOL     -0.645787
     85 O15         2.4970   -5.7690    0.9290 oh        1 MOL     -0.480596
     86 H35         3.5340   -3.7570   -0.7920 hn        1 MOL      0.373939
     87 H36         1.6260   -5.5530   -2.2590 h1        1 MOL      0.126309
     88 H37         0.6170   -5.8260    0.1590 h1        1 MOL      0.011589
     89 H38         2.5310   -4.8200    1.0380 ho        1 MOL      0.278860
     90 H39         3.0780   -7.4840   -0.8260 hc        1 MOL      0.175876
     91 H40         1.8160   -8.0320    0.2190 hc        1 MOL      0.175876
     92 H41         1.4900   -7.6020   -1.5330 hc        1 MOL      0.175876
     93 N9          0.1550   -3.6370   -2.4440 n         1 MOL     -0.684357
     94 C29        -0.8830   -2.5070   -2.4760 c3        1 MOL      0.052677
     95 C30        -2.2140   -3.0220   -1.9100 c         1 MOL      0.603718
     96 O16        -2.8740   -3.9460   -2.4400 o         1 MOL     -0.580018
     97 C31        -1.0030   -1.9080   -3.9180 c3        1 MOL      0.276664
     98 C32         0.3690   -1.6040   -4.5470 c3        1 MOL      0.583420
     99 C33        -1.9210   -0.6250   -3.7380 c3        1 MOL     -0.735932
    100 C34         0.1480   -1.3300   -6.0340 c3        1 MOL     -0.302623
    101 H42         0.2670   -4.2400   -3.2470 hn        1 MOL      0.329654
    102 H43        -0.4560   -1.6950   -1.8960 h1        1 MOL      0.039668
    103 H44        -1.4600   -2.6430   -4.5830 hc        1 MOL     -0.057170
    104 H45         1.0770   -2.4200   -4.4230 hc        1 MOL     -0.161468
    105 H46         0.8630   -0.7420   -4.0990 hc        1 MOL     -0.161468
    106 H47        -2.7040   -0.9120   -3.0360 hc        1 MOL      0.144606
    107 H48        -1.3780    0.2100   -3.3040 hc        1 MOL      0.144606
    108 H49        -2.2850   -0.3510   -4.7310 hc        1 MOL      0.144606
    109 H50        -0.5390   -0.4940   -6.1640 hc        1 MOL      0.047830
    110 H51         1.1210   -1.0770   -6.4600 hc        1 MOL      0.047830
    111 H52        -0.0770   -2.3140   -6.4530 hc        1 MOL      0.047830
    112 N10        -2.6880   -2.3700   -0.8410 n         1 MOL     -0.343807
    113 C35        -4.0760   -2.6650   -0.3290 c3        1 MOL     -0.065797
    114 C36        -5.1860   -1.7420   -0.9450 c         1 MOL      0.407402
    115 O17        -4.9070   -0.7190   -1.5010 o         1 MOL     -0.367421
    116 C37        -4.1150   -2.4870    1.2170 c3        1 MOL      0.400858
    117 C38        -3.1740   -3.2160    2.1650 c3        1 MOL     -0.505083
    118 O18        -3.8920   -1.1000    1.5030 oh        1 MOL     -0.594907
    119 H53        -2.1960   -1.5560   -0.5030 hn        1 MOL      0.365594
    120 H54        -4.3310   -3.7070   -0.5200 h1        1 MOL      0.074511
    121 H55        -5.1070   -2.8720    1.4520 h1        1 MOL     -0.040434
    122 H56        -2.9640   -1.0160    1.2760 ho        1 MOL      0.341341
    123 H57        -3.2640   -4.2930    2.0740 hc        1 MOL      0.129891
    124 H58        -2.1390   -2.9790    1.9300 hc        1 MOL      0.129891
    125 H59        -3.4160   -2.8820    3.1780 hc        1 MOL      0.129891
    126 N11        -6.4650   -2.0000   -0.6040 n         1 MOL     -0.276687
    127 C39        -7.5910   -1.2020   -1.0250 c3        1 MOL     -0.155522
    128 C40        -7.5510    0.2340   -0.4040 c         1 MOL      0.310829
    129 O19        -7.8770    1.1750   -1.0980 o         1 MOL     -0.470665
    130 C41        -8.8980   -1.8920   -0.8670 c3        1 MOL      0.345618
    131 C42        -9.1390   -2.9300   -1.9050 c3        1 MOL     -0.539398
    132 O20        -8.8640   -2.6490    0.2700 oh        1 MOL     -0.560530
    133 H60        -6.6100   -2.8670   -0.0980 hn        1 MOL      0.233409
    134 H61        -7.4470   -0.9400   -2.0690 h1        1 MOL      0.142014
    135 H62        -9.6010   -1.0640   -0.8060 h1        1 MOL      0.034978
    136 H63        -9.1780   -2.0520    0.9550 ho        1 MOL      0.339983
    137 H64        -8.6950   -2.6730   -2.8720 hc        1 MOL      0.158576
    138 H65        -8.6620   -3.8920   -1.7000 hc        1 MOL      0.158576
    139 H66       -10.2090   -3.1160   -1.9890 hc        1 MOL      0.158576
    140 N12        -7.0880    0.3080    0.8370 n         1 MOL     -0.172973
    141 C43        -6.8420    1.6420    1.4830 c3        1 MOL     -0.002761
    142 C44        -5.8340    2.5550    0.7010 c         1 MOL      0.342221
    143 O21        -5.9200    3.7860    0.7910 o         1 MOL     -0.500748
    144 C45        -6.5380    1.3990    2.9270 c3        1 MOL     -0.332734
    145 C46        -7.8790    1.2350    3.6280 c3        1 MOL      0.301697
    146 C47        -7.8060    0.9030    5.1470 c3        1 MOL     -0.137056
    147 C48        -9.1180    1.0410    5.8710 c3        1 MOL     -0.138106
    148 N13       -10.1360    0.1450    5.4150 n4        1 MOL     -0.264175
    149 H67        -6.7530   -0.5230    1.3080 hn        1 MOL      0.210976
    150 H68        -7.7910    2.1560    1.3940 h1        1 MOL      0.076232
    151 H69        -6.0230    2.2620    3.3540 hc        1 MOL      0.103868
    152 H70        -5.9570    0.4970    3.0590 hc        1 MOL      0.103868
    153 H71        -8.4610    0.5340    3.0290 hc        1 MOL     -0.043484
    154 H72        -8.3660    2.2080    3.5560 hc        1 MOL     -0.043484
    155 H73        -7.0650    1.5770    5.5830 hc        1 MOL      0.070682
    156 H74        -7.5390   -0.1580    5.2000 hc        1 MOL      0.070682
    157 H75        -9.4660    2.0610    5.7080 hx        1 MOL      0.150603
    158 H76        -8.9500    0.8900    6.9360 hx        1 MOL      0.150603
    159 H77       -10.8900    0.0400    6.0830 hn        1 MOL      0.262206
    160 H78       -10.5120    0.3690    4.5010 hn        1 MOL      0.262206
    161 H79        -9.8350   -0.8190    5.3750 hn        1 MOL      0.262206
    162 N14        -4.9290    1.9660   -0.1170 n         1 MOL      0.115295
    163 C49        -3.8070    2.6330   -0.8380 c3        1 MOL     -0.310317
    164 C50        -4.2440    3.0200   -2.2180 c         1 MOL      0.456873
    165 O22        -3.9760    4.1780   -2.6690 o         1 MOL     -0.535320
    166 C51        -2.5390    1.8010   -0.9750 c3        1 MOL      0.254546
    167 C52        -1.8820    1.7390    0.4270 c3        1 MOL     -0.400665
    168 C53        -0.8060    0.6280    0.5460 c         1 MOL      0.710232
    169 O23        -1.0770   -0.5450    0.8970 o         1 MOL     -0.738688
    170 O24         0.3400    0.9490    0.2420 o         1 MOL     -0.738688
    171 H80        -5.0100    0.9490   -0.1320 hn        1 MOL      0.050333
    172 H81        -3.5240    3.5720   -0.3760 h1        1 MOL      0.123747
    173 H82        -1.8880    2.4170   -1.5850 hc        1 MOL      0.057209
    174 H83        -2.7380    0.8530   -1.4670 hc        1 MOL      0.057209
    175 H84        -2.7210    1.5610    1.0980 hc        1 MOL      0.111303
    176 H85        -1.4500    2.7160    0.6220 hc        1 MOL      0.111303
    177 N15        -5.0340    2.1400   -2.8940 n         1 MOL     -0.218329
    178 C54        -5.6670    2.4600   -4.1960 c3        1 MOL     -0.247652
    179 H86        -5.2530    3.3930   -4.5810 h1        1 MOL      0.106984
    180 H87        -5.4680    1.6560   -4.9040 h1        1 MOL      0.106984
    181 H88        -6.7430    2.5690   -4.0610 h1        1 MOL      0.106984
    182 H89        -5.3280    1.3010   -2.4130 hn        1 MOL      0.197513
    183 Ca1         1.4960   -1.0370    1.4280 Ca        1 MOL      1.755676
    184 O25        -0.0800   -1.6420    3.5110 oh        1 MOL     -0.804417
    185 H90        -0.0780   -2.4880    3.9650 ho        1 MOL      0.404743
    186 H91        -0.8780   -1.2130    3.8200 ho        1 MOL      0.404743
@<TRIPOS>BOND
     1    1    2 1   
     2    1    4 1   
     3    1    5 1   
     4    1    6 1   
     5    2    3 2   
     6    2    7 1   
     7    7    8 1   
     8    7   15 1   
     9    8    9 1   
    10    8   11 1   
    11    8   16 1   
    12    9   10 2   
    13    9   19 1   
    14   11   12 1   
    15   11   17 1   
    16   11   18 1   
    17   12   13 1   
    18   12   14 1   
    19   19   20 1   
    20   19   28 1   
    21   20   21 1   
    22   20   23 1   
    23   20   29 1   
    24   21   22 2   
    25   21   41 1   
    26   23   24 1   
    27   23   30 1   
    28   23   31 1   
    29   24   25 1   
    30   24   32 1   
    31   24   33 1   
    32   25   26 1   
    33   25   34 1   
    34   25   35 1   
    35   26   27 1   
    36   26   36 1   
    37   26   37 1   
    38   27   38 1   
    39   27   39 1   
    40   27   40 1   
    41   41   42 1   
    42   41   49 1   
    43   42   43 1   
    44   42   45 1   
    45   42   50 1   
    46   43   44 2   
    47   43   53 1   
    48   45   46 1   
    49   45   51 1   
    50   45   52 1   
    51   46   47 1   
    52   46   48 1   
    53   53   54 1   
    54   53   57 1   
    55   54   55 1   
    56   54   58 1   
    57   54   59 1   
    58   55   56 2   
    59   55   60 1   
    60   60   61 1   
    61   60   68 1   
    62   61   62 1   
    63   61   64 1   
    64   61   69 1   
    65   62   63 2   
    66   62   72 1   
    67   64   65 1   
    68   64   70 1   
    69   64   71 1   
    70   65   66 1   
    71   65   67 1   
    72   72   73 1   
    73   72   76 1   
    74   73   74 1   
    75   73   77 1   
    76   73   78 1   
    77   74   75 2   
    78   74   79 1   
    79   79   80 1   
    80   79   86 1   
    81   80   81 1   
    82   80   83 1   
    83   80   87 1   
    84   81   82 2   
    85   81   93 1   
    86   83   84 1   
    87   83   85 1   
    88   83   88 1   
    89   84   90 1   
    90   84   91 1   
    91   84   92 1   
    92   85   89 1   
    93   93   94 1   
    94   93  101 1   
    95   94   95 1   
    96   94   97 1   
    97   94  102 1   
    98   95   96 2   
    99   95  112 1   
   100   97   98 1   
   101   97   99 1   
   102   97  103 1   
   103   98  100 1   
   104   98  104 1   
   105   98  105 1   
   106   99  106 1   
   107   99  107 1   
   108   99  108 1   
   109  100  109 1   
   110  100  110 1   
   111  100  111 1   
   112  112  113 1   
   113  112  119 1   
   114  113  114 1   
   115  113  116 1   
   116  113  120 1   
   117  114  115 2   
   118  114  126 1   
   119  116  117 1   
   120  116  118 1   
   121  116  121 1   
   122  117  123 1   
   123  117  124 1   
   124  117  125 1   
   125  118  122 1   
   126  126  127 1   
   127  126  133 1   
   128  127  128 1   
   129  127  130 1   
   130  127  134 1   
   131  128  129 2   
   132  128  140 1   
   133  130  131 1   
   134  130  132 1   
   135  130  135 1   
   136  131  137 1   
   137  131  138 1   
   138  131  139 1   
   139  132  136 1   
   140  140  141 1   
   141  140  149 1   
   142  141  142 1   
   143  141  144 1   
   144  141  150 1   
   145  142  143 2   
   146  142  162 1   
   147  144  145 1   
   148  144  151 1   
   149  144  152 1   
   150  145  146 1   
   151  145  153 1   
   152  145  154 1   
   153  146  147 1   
   154  146  155 1   
   155  146  156 1   
   156  147  148 1   
   157  147  157 1   
   158  147  158 1   
   159  148  159 1   
   160  148  160 1   
   161  148  161 1   
   162  162  163 1   
   163  162  171 1   
   164  163  164 1   
   165  163  166 1   
   166  163  172 1   
   167  164  165 2   
   168  164  177 1   
   169  166  167 1   
   170  166  173 1   
   171  166  174 1   
   172  167  168 1   
   173  167  175 1   
   174  167  176 1   
   175  168  169 1   
   176  168  170 1   
   177  177  178 1   
   178  177  182 1   
   179  178  179 1   
   180  178  180 1   
   181  178  181 1   
   182  184  185 1   
   183  184  186 1   
@<TRIPOS>SUBSTRUCTURE
     1 MOL         1 TEMP              0 ****  ****    0 ROOT
