@<TRIPOS>MOLECULE
MOL
  175   173     1     0     0
SMALL
resp


@<TRIPOS>ATOM
      1 C1          0.4790    2.9130    5.8890 c3        1 MOL     -0.344373
      2 C2         -0.2340    2.5720    4.5910 c         1 MOL      0.701908
      3 O1         -0.4460    1.4140    4.2230 o         1 MOL     -0.610800
      4 H1          0.4910    2.0370    6.5370 hc        1 MOL      0.087600
      5 H2          1.5020    3.2190    5.6730 hc        1 MOL      0.087600
      6 H3         -0.0460    3.7270    6.3900 hc        1 MOL      0.087600
      7 N1         -0.7100    3.5550    3.8990 n         1 MOL     -0.462843
      8 C3         -1.5470    3.4640    2.6960 c3        1 MOL     -0.009141
      9 C4         -1.5620    4.7410    1.8070 c         1 MOL      0.590930
     10 O2         -1.5980    5.8340    2.2950 o         1 MOL     -0.582957
     11 C5         -2.9550    3.0280    3.0520 c3        1 MOL     -0.171742
     12 C6         -3.7190    2.6840    1.8140 c         1 MOL      0.764956
     13 O3         -4.9170    2.7390    1.9330 o         1 MOL     -0.698143
     14 O4         -3.1410    2.2030    0.8300 o         1 MOL     -0.698143
     15 H4         -0.3780    4.4650    4.1850 hn        1 MOL      0.264084
     16 H5         -1.1640    2.6570    2.0800 h1        1 MOL      0.221442
     17 H6         -3.4630    3.7440    3.7010 hc        1 MOL      0.043828
     18 H7         -2.9420    2.0700    3.5710 hc        1 MOL      0.043828
     19 N2         -1.5570    4.6500    0.4990 n         1 MOL     -0.606524
     20 C7         -2.0380    5.7210   -0.4690 c3        1 MOL      0.532491
     21 C8         -3.0640    5.3600   -1.5510 c         1 MOL      0.331456
     22 O5         -3.2800    6.0780   -2.5170 o         1 MOL     -0.523862
     23 C9         -0.7650    6.3920   -0.9400 c3        1 MOL     -0.441539
     24 H8         -1.4590    3.7320    0.0720 hn        1 MOL      0.316085
     25 H9         -2.5370    6.4990    0.1040 h1        1 MOL     -0.017295
     26 H10        -0.3580    5.6690   -1.6480 hc        1 MOL      0.102165
     27 H11        -0.9770    7.3590   -1.3960 hc        1 MOL      0.102165
     28 H12        -0.1580    6.6100   -0.0700 hc        1 MOL      0.102165
     29 N3         -3.8090    4.1690   -1.4630 n         1 MOL     -0.299686
     30 C10        -4.6930    3.6730   -2.5240 c3        1 MOL      0.192419
     31 C11        -5.8160    2.7820   -1.9590 c         1 MOL      0.267300
     32 O6         -6.8530    2.7410   -2.6740 o         1 MOL     -0.571359
     33 C12        -3.8410    2.8970   -3.5580 c3        1 MOL     -0.205655
     34 C13        -2.9760    1.7970   -2.9680 c         1 MOL      0.738914
     35 O7         -3.4700    1.0520   -2.0740 o         1 MOL     -0.686309
     36 O8         -1.8700    1.5390   -3.4480 o         1 MOL     -0.686309
     37 H13        -3.7440    3.5470   -0.6740 hn        1 MOL      0.040003
     38 H14        -5.1910    4.5270   -2.9870 h1        1 MOL      0.060983
     39 H15        -3.3560    3.5900   -4.2460 hc        1 MOL      0.043728
     40 H16        -4.5270    2.3440   -4.1940 hc        1 MOL      0.043728
     41 N4         -5.7530    2.0670   -0.8330 n         1 MOL      0.002477
     42 C14        -6.8660    1.4090   -0.2040 c3        1 MOL     -0.325919
     43 C15        -7.1130    0.0020   -0.7200 c         1 MOL      0.528793
     44 O9         -8.1610   -0.5930   -0.4580 o         1 MOL     -0.601021
     45 H17        -4.8370    2.0840   -0.4230 hn        1 MOL      0.182367
     46 H18        -7.7650    2.0050   -0.3790 h1        1 MOL      0.142556
     47 H19        -6.7480    1.4540    0.8820 h1        1 MOL      0.142556
     48 N5         -6.2140   -0.5430   -1.5970 n         1 MOL     -0.191650
     49 C16        -6.3410   -1.7860   -2.3070 c3        1 MOL     -0.077360
     50 C17        -6.5100   -2.9900   -1.3430 c         1 MOL      0.430960
     51 O10        -6.7230   -4.1520   -1.6880 o         1 MOL     -0.537066
     52 C18        -5.1160   -1.8480   -3.1560 c3        1 MOL     -0.230042
     53 C19        -3.8110   -1.9170   -2.5520 c         1 MOL      0.463826
     54 N6         -2.7930   -1.7290   -3.3760 n         1 MOL     -0.710433
     55 O11        -3.6460   -1.9840   -1.3720 o         1 MOL     -0.119658
     56 H20        -5.3990    0.0300   -1.7680 hn        1 MOL      0.191783
     57 H21        -7.1470   -1.6480   -3.0230 h1        1 MOL      0.114072
     58 H22        -5.0880   -0.9300   -3.7430 hc        1 MOL      0.079954
     59 H23        -5.0900   -2.6970   -3.8480 hc        1 MOL      0.079954
     60 H24        -2.9650   -1.5420   -4.3590 hn        1 MOL      0.347228
     61 H25        -1.8900   -1.8010   -2.9230 hn        1 MOL      0.347228
     62 N7         -6.4530   -2.8690    0.0260 n         1 MOL     -0.184225
     63 C20        -6.4960   -3.9260    1.0190 c3        1 MOL     -0.132438
     64 C21        -5.1020   -4.4760    1.2980 c         1 MOL      0.537284
     65 O12        -5.0350   -5.3330    2.1680 o         1 MOL     -0.617820
     66 H26        -6.3770   -1.9210    0.3700 hn        1 MOL      0.191964
     67 H27        -7.1570   -4.7250    0.6790 h1        1 MOL      0.094302
     68 H28        -7.0440   -3.5770    1.8950 h1        1 MOL      0.094302
     69 N8         -4.0260   -3.9130    0.8290 n         1 MOL     -0.223206
     70 C22        -2.6850   -4.5460    1.0170 c3        1 MOL      0.028152
     71 C23        -1.6700   -3.5190    1.2240 c         1 MOL      0.533459
     72 O13        -1.8880   -2.3290    0.8830 o         1 MOL     -0.682500
     73 C24        -2.2280   -5.4350   -0.1110 c3        1 MOL      0.634905
     74 C25        -2.8430   -6.8660   -0.0250 c3        1 MOL     -0.406488
     75 O14        -2.4300   -4.8870   -1.3990 oh        1 MOL     -0.622879
     76 H29        -4.1400   -3.2770    0.0560 hn        1 MOL      0.033045
     77 H30        -2.5520   -5.1490    1.9200 h1        1 MOL      0.022019
     78 H31        -1.1670   -5.6810    0.0050 h1        1 MOL     -0.077033
     79 H32        -2.0540   -4.0060   -1.3770 ho        1 MOL      0.285352
     80 H33        -2.6170   -7.3830   -0.9680 hc        1 MOL      0.088938
     81 H34        -2.4110   -7.4590    0.7850 hc        1 MOL      0.088938
     82 H35        -3.9220   -6.7440    0.0820 hc        1 MOL      0.088938
     83 N9         -0.4910   -3.9040    1.7810 n         1 MOL     -0.452524
     84 C26         0.6920   -3.0550    1.8750 c3        1 MOL     -0.093120
     85 C27         1.4710   -3.2330    0.5940 c         1 MOL      0.574398
     86 O15         1.7890   -4.3580    0.2200 o         1 MOL     -0.603679
     87 C28         1.4430   -3.3350    3.2020 c3        1 MOL      0.052683
     88 C29         0.5210   -2.6970    4.3180 c3        1 MOL      0.154353
     89 C30         2.8880   -2.7570    3.3360 c3        1 MOL     -0.040140
     90 C31         0.9520   -2.5820    5.7430 c3        1 MOL     -0.358301
     91 H36        -0.2840   -4.8620    2.0070 hn        1 MOL      0.264510
     92 H37         0.3640   -2.0150    1.8150 h1        1 MOL      0.151237
     93 H38         1.5300   -4.3970    3.4430 hc        1 MOL      0.016369
     94 H39        -0.3770   -3.3250    4.3570 hc        1 MOL     -0.011586
     95 H40         0.2700   -1.7020    3.9640 hc        1 MOL     -0.011586
     96 H41         2.9540   -1.6790    3.1960 hc        1 MOL     -0.000885
     97 H42         3.2910   -3.1540    4.2690 hc        1 MOL     -0.000885
     98 H43         3.5830   -3.2010    2.6200 hc        1 MOL     -0.000885
     99 H44         0.1870   -2.0660    6.3360 hc        1 MOL      0.082308
    100 H45         1.0430   -3.5750    6.1690 hc        1 MOL      0.082308
    101 H46         1.8060   -1.9050    5.8310 hc        1 MOL      0.082308
    102 N10         1.7700   -2.0920    0.0480 n         1 MOL     -0.291096
    103 C32         2.5720   -1.9320   -1.1460 c3        1 MOL      0.110436
    104 C33         4.0160   -1.4790   -0.7520 c         1 MOL      0.414165
    105 O16         4.2280   -0.8060    0.2190 o         1 MOL     -0.292478
    106 C34         1.9510   -0.8400   -2.0710 c3        1 MOL     -0.380452
    107 C35         0.5280   -1.3330   -2.5880 c         1 MOL      0.821539
    108 O17        -0.5100   -1.0430   -1.9580 o         1 MOL     -0.694236
    109 O18         0.6140   -2.0150   -3.6390 o         1 MOL     -0.694236
    110 H47         1.5450   -1.1970    0.4570 hn        1 MOL      0.166175
    111 H48         2.5900   -2.9040   -1.6360 h1        1 MOL      0.063046
    112 H49         2.6890   -0.6850   -2.8590 hc        1 MOL      0.104631
    113 H50         1.9480    0.1460   -1.6040 hc        1 MOL      0.104631
    114 N11         5.0120   -1.8230   -1.6240 n         1 MOL     -0.683035
    115 C36         6.4300   -1.4780   -1.3730 c3        1 MOL      0.403676
    116 C37         6.5020    0.0050   -1.0230 c         1 MOL      0.302601
    117 O19         7.1480    0.2600    0.0630 o         1 MOL     -0.526615
    118 C38         7.2770   -1.8770   -2.6300 c3        1 MOL     -0.270990
    119 C39         8.7400   -1.7110   -2.3280 ca        1 MOL      0.016760
    120 C40         9.2870   -2.1910   -1.0930 ca        1 MOL     -0.041770
    121 C41         9.6440   -1.1940   -3.2470 ca        1 MOL     -0.041770
    122 C42        10.6770   -2.0560   -0.7790 ca        1 MOL     -0.257922
    123 C43        11.0270   -1.0360   -2.9500 ca        1 MOL     -0.257922
    124 C44        11.4890   -1.3870   -1.6180 ca        1 MOL      0.035095
    125 H51         4.7760   -2.3610   -2.4540 hn        1 MOL      0.347273
    126 H52         6.8040   -2.0080   -0.4930 h1        1 MOL      0.064995
    127 H53         7.0900   -1.2240   -3.4820 hc        1 MOL      0.096216
    128 H54         7.0430   -2.9330   -2.8090 hc        1 MOL      0.096216
    129 H55         8.6200   -2.7960   -0.4980 ha        1 MOL      0.087665
    130 H56         9.3350   -0.9650   -4.2540 ha        1 MOL      0.087665
    131 H57        11.1450   -2.4610    0.1100 ha        1 MOL      0.140123
    132 H58        11.7270   -0.4760   -3.5520 ha        1 MOL      0.140123
    133 H59        12.5220   -1.2730   -1.3390 ha        1 MOL      0.071212
    134 N12         6.0260    1.0120   -1.8230 n         1 MOL     -0.098285
    135 C45         6.1600    2.4680   -1.4500 c3        1 MOL      0.042033
    136 C46         5.5400    2.9220   -0.0990 c         1 MOL      0.415015
    137 O20         5.6410    4.1000    0.2760 o         1 MOL     -0.541964
    138 C47         5.3500    3.1660   -2.6100 c3        1 MOL     -0.312178
    139 C48         4.4310    2.0790   -3.1630 c3        1 MOL      0.062640
    140 C49         5.3350    0.8680   -3.1280 c3        1 MOL     -0.001664
    141 H60         7.2010    2.7800   -1.3240 h1        1 MOL      0.080338
    142 H61         4.7390    4.0200   -2.3110 hc        1 MOL      0.108916
    143 H62         6.0680    3.4130   -3.3920 hc        1 MOL      0.108916
    144 H63         3.5920    1.8790   -2.4870 hc        1 MOL      0.036834
    145 H64         4.0830    2.1910   -4.1910 hc        1 MOL      0.036834
    146 H65         4.7770   -0.0660   -3.2670 h1        1 MOL      0.019740
    147 H66         6.1570    0.9700   -3.8380 h1        1 MOL      0.019740
    148 N13         4.8290    2.0060    0.5500 n         1 MOL     -0.125600
    149 C50         4.1680    2.1690    1.8870 c3        1 MOL     -0.049995
    150 C51         4.8770    1.3230    2.9650 c         1 MOL      0.386831
    151 O21         5.0630    1.6920    4.1030 o         1 MOL     -0.550112
    152 C52         2.6780    1.7870    1.8380 c3        1 MOL      0.178315
    153 C53         2.0490    2.0760    0.4760 c3        1 MOL      0.068137
    154 C54         0.6340    1.5070    0.3820 c         1 MOL      0.372688
    155 O22         0.3510    0.3500    0.7360 o         1 MOL     -0.649952
    156 O23        -0.3270    2.1100   -0.1460 o         1 MOL     -0.649952
    157 H67         4.9560    1.0440    0.2780 hn        1 MOL      0.054515
    158 H68         4.2460    3.2270    2.1540 h1        1 MOL      0.075376
    159 H69         2.1440    2.3800    2.5810 hc        1 MOL     -0.037757
    160 H70         2.7030    0.7160    2.0570 hc        1 MOL     -0.037757
    161 H71         2.6270    1.5560   -0.2870 hc        1 MOL      0.015085
    162 H72         2.1280    3.1600    0.3620 hc        1 MOL      0.015085
    163 N14         5.3970    0.1740    2.5340 n         1 MOL     -0.024568
    164 C55         6.3210   -0.5670    3.4680 c3        1 MOL     -0.080740
    165 H73         5.8040   -1.4360    3.8750 h1        1 MOL      0.046641
    166 H74         7.2060   -0.8940    2.9220 h1        1 MOL      0.046641
    167 H75         6.6190    0.0920    4.2830 h1        1 MOL      0.046641
    168 H76         5.2650   -0.1230    1.5750 hn        1 MOL      0.057350
    169 Ca1        -2.1020    0.0750   -0.1830 Ca        1 MOL      1.642444
    170 O24        -4.6860   -0.2540    1.0970 oh        1 MOL     -0.775576
    171 H77        -4.7270    0.6150    1.4900 ho        1 MOL      0.365000
    172 H78        -4.8740   -0.8560    1.8250 ho        1 MOL      0.365000
    173 O25        -1.9270   -0.0470    2.6180 oh        1 MOL     -0.775576
    174 H79        -1.7300   -0.9060    2.9840 ho        1 MOL      0.365000
    175 H80        -1.2710    0.5330    3.0170 ho        1 MOL      0.365000
@<TRIPOS>BOND
     1    1    2 1   
     2    1    4 1   
     3    1    5 1   
     4    1    6 1   
     5    2    3 2   
     6    2    7 1   
     7    7    8 1   
     8    7   15 1   
     9    8    9 1   
    10    8   11 1   
    11    8   16 1   
    12    9   10 2   
    13    9   19 1   
    14   11   12 1   
    15   11   17 1   
    16   11   18 1   
    17   12   13 1   
    18   12   14 1   
    19   19   20 1   
    20   19   24 1   
    21   20   21 1   
    22   20   23 1   
    23   20   25 1   
    24   21   22 2   
    25   21   29 1   
    26   23   26 1   
    27   23   27 1   
    28   23   28 1   
    29   29   30 1   
    30   29   37 1   
    31   30   31 1   
    32   30   33 1   
    33   30   38 1   
    34   31   32 2   
    35   31   41 1   
    36   33   34 1   
    37   33   39 1   
    38   33   40 1   
    39   34   35 1   
    40   34   36 1   
    41   41   42 1   
    42   41   45 1   
    43   42   43 1   
    44   42   46 1   
    45   42   47 1   
    46   43   44 2   
    47   43   48 1   
    48   48   49 1   
    49   48   56 1   
    50   49   50 1   
    51   49   52 1   
    52   49   57 1   
    53   50   51 2   
    54   50   62 1   
    55   52   53 1   
    56   52   58 1   
    57   52   59 1   
    58   53   54 1   
    59   53   55 2   
    60   54   60 1   
    61   54   61 1   
    62   62   63 1   
    63   62   66 1   
    64   63   64 1   
    65   63   67 1   
    66   63   68 1   
    67   64   65 2   
    68   64   69 1   
    69   69   70 1   
    70   69   76 1   
    71   70   71 1   
    72   70   73 1   
    73   70   77 1   
    74   71   72 2   
    75   71   83 1   
    76   73   74 1   
    77   73   75 1   
    78   73   78 1   
    79   74   80 1   
    80   74   81 1   
    81   74   82 1   
    82   75   79 1   
    83   83   84 1   
    84   83   91 1   
    85   84   85 1   
    86   84   87 1   
    87   84   92 1   
    88   85   86 2   
    89   85  102 1   
    90   87   88 1   
    91   87   89 1   
    92   87   93 1   
    93   88   90 1   
    94   88   94 1   
    95   88   95 1   
    96   89   96 1   
    97   89   97 1   
    98   89   98 1   
    99   90   99 1   
   100   90  100 1   
   101   90  101 1   
   102  102  103 1   
   103  102  110 1   
   104  103  104 1   
   105  103  106 1   
   106  103  111 1   
   107  104  105 2   
   108  104  114 1   
   109  106  107 1   
   110  106  112 1   
   111  106  113 1   
   112  107  108 1   
   113  107  109 1   
   114  114  115 1   
   115  114  125 1   
   116  115  116 1   
   117  115  118 1   
   118  115  126 1   
   119  116  117 2   
   120  116  134 1   
   121  118  119 1   
   122  118  127 1   
   123  118  128 1   
   124  119  120 ar  
   125  119  121 ar  
   126  120  122 ar  
   127  120  129 1   
   128  121  123 ar  
   129  121  130 1   
   130  122  124 ar  
   131  122  131 1   
   132  123  124 ar  
   133  123  132 1   
   134  124  133 1   
   135  134  135 1   
   136  134  140 1   
   137  135  136 1   
   138  135  138 1   
   139  135  141 1   
   140  136  137 2   
   141  136  148 1   
   142  138  139 1   
   143  138  142 1   
   144  138  143 1   
   145  139  140 1   
   146  139  144 1   
   147  139  145 1   
   148  140  146 1   
   149  140  147 1   
   150  148  149 1   
   151  148  157 1   
   152  149  150 1   
   153  149  152 1   
   154  149  158 1   
   155  150  151 2   
   156  150  163 1   
   157  152  153 1   
   158  152  159 1   
   159  152  160 1   
   160  153  154 1   
   161  153  161 1   
   162  153  162 1   
   163  154  155 1   
   164  154  156 1   
   165  163  164 1   
   166  163  168 1   
   167  164  165 1   
   168  164  166 1   
   169  164  167 1   
   170  170  171 1   
   171  170  172 1   
   172  173  174 1   
   173  173  175 1   
@<TRIPOS>SUBSTRUCTURE
     1 MOL         1 TEMP              0 ****  ****    0 ROOT
