@<TRIPOS>MOLECULE
MOL
  189   185     1     0     0
SMALL
resp


@<TRIPOS>ATOM
      1 C1          0.0040    2.0590    5.8550 c3        1 MOL     -0.418548
      2 C2         -0.5460    2.2740    4.4510 c         1 MOL      0.737982
      3 O1          0.1780    2.8120    3.6250 o         1 MOL     -0.672473
      4 H1          1.0280    2.4310    5.9040 hc        1 MOL      0.105175
      5 H2         -0.6120    2.5970    6.5740 hc        1 MOL      0.105175
      6 H3         -0.0060    0.9950    6.0910 hc        1 MOL      0.105175
      7 N1         -1.6560    1.7400    4.1660 n         1 MOL     -0.565831
      8 C3         -2.2030    1.5610    2.7580 c3        1 MOL      0.117518
      9 C4         -2.5920    2.8930    2.1850 c         1 MOL      0.384954
     10 O2         -3.3490    3.6870    2.7940 o         1 MOL     -0.540970
     11 C5         -3.4470    0.6200    2.9150 c3        1 MOL     -0.056866
     12 C6         -4.0440    0.1900    1.5130 c         1 MOL      0.739653
     13 O3         -5.2240   -0.2690    1.4470 o         1 MOL     -0.715528
     14 O4         -3.3470    0.4660    0.4420 o         1 MOL     -0.715528
     15 H4         -2.1160    1.3130    4.9570 hn        1 MOL      0.316769
     16 H5         -1.4500    1.0460    2.1770 h1        1 MOL      0.047425
     17 H6         -4.2450    1.0650    3.5070 hc        1 MOL      0.023912
     18 H7         -3.1570   -0.3230    3.3780 hc        1 MOL      0.023912
     19 N2         -1.9840    3.2990    1.0450 n         1 MOL      0.077499
     20 C7         -2.0640    4.6100    0.5070 c3        1 MOL      0.001706
     21 C8         -3.2070    4.7820   -0.4310 c         1 MOL      0.411454
     22 O5         -3.9450    5.7590   -0.3340 o         1 MOL     -0.557921
     23 C9         -0.6800    5.0950   -0.0360 c3        1 MOL     -0.251916
     24 C10         0.2560    5.5080    1.0550 c3        1 MOL     -0.002877
     25 C11        -0.1290    6.8810    1.5360 c3        1 MOL     -0.271672
     26 C12         0.8390    7.3440    2.6150 c3        1 MOL     -0.016779
     27 N3          0.6180    6.7040    3.9150 n4        1 MOL     -0.344679
     28 H8         -1.5530    2.6540    0.3970 hn        1 MOL      0.006028
     29 H9         -2.3520    5.3050    1.2970 h1        1 MOL      0.023186
     30 H10        -0.7150    5.9720   -0.6920 hc        1 MOL      0.090018
     31 H11        -0.1300    4.3500   -0.6020 hc        1 MOL      0.090018
     32 H12         1.1990    5.6270    0.5190 hc        1 MOL      0.084516
     33 H13         0.3170    4.7250    1.8060 hc        1 MOL      0.084516
     34 H14        -1.0850    6.8070    2.0380 hc        1 MOL      0.144028
     35 H15        -0.0960    7.6850    0.8000 hc        1 MOL      0.144028
     36 H16         0.7110    8.4190    2.7540 hx        1 MOL      0.084011
     37 H17         1.8260    7.0610    2.2410 hx        1 MOL      0.084011
     38 H18         0.6870    7.3150    4.7130 hn        1 MOL      0.331255
     39 H19        -0.2660    6.2130    3.8860 hn        1 MOL      0.331255
     40 H20         1.3300    5.9860    3.9790 hn        1 MOL      0.331255
     41 N4         -3.3910    3.8550   -1.3710 n         1 MOL     -0.279372
     42 C13        -4.4440    3.9550   -2.3910 c3        1 MOL      0.062646
     43 C14        -5.7120    3.1610   -1.9190 c         1 MOL      0.403448
     44 O6         -6.7540    3.2090   -2.5480 o         1 MOL     -0.526211
     45 C15        -3.9200    3.5010   -3.7600 c3        1 MOL     -0.097208
     46 C16        -3.0950    2.1810   -3.7570 c         1 MOL      0.594057
     47 O7         -3.0250    1.4310   -2.6980 o         1 MOL     -0.655263
     48 O8         -2.5430    1.7960   -4.8530 o         1 MOL     -0.655263
     49 H21        -2.6870    3.1360   -1.5320 hn        1 MOL      0.222523
     50 H22        -4.7700    4.9640   -2.6110 h1        1 MOL      0.088837
     51 H23        -3.2860    4.3430   -4.0400 hc        1 MOL      0.029777
     52 H24        -4.7050    3.5760   -4.5090 hc        1 MOL      0.029777
     53 N5         -5.5920    2.5670   -0.7290 n         1 MOL     -0.192553
     54 C17        -6.8020    2.0930   -0.0220 c3        1 MOL     -0.132018
     55 C18        -7.3710    0.7630   -0.5940 c         1 MOL      0.562828
     56 O9         -8.5560    0.4580   -0.4730 o         1 MOL     -0.584526
     57 H25        -4.6780    2.4530   -0.3110 hn        1 MOL      0.183119
     58 H26        -7.6110    2.8100    0.1030 h1        1 MOL      0.088854
     59 H27        -6.5370    1.9050    1.0210 h1        1 MOL      0.088854
     60 N6         -6.5150    0.0400   -1.3770 n         1 MOL     -0.260815
     61 C19        -6.9080   -1.1950   -2.0660 c3        1 MOL     -0.056977
     62 C20        -7.0200   -2.4390   -1.2490 c         1 MOL      0.489031
     63 O10        -7.6150   -3.3940   -1.7420 o         1 MOL     -0.568725
     64 C21        -6.0200   -1.4200   -3.2870 c3        1 MOL     -0.082834
     65 C22        -4.5950   -1.8650   -3.1470 c         1 MOL      0.677371
     66 O11        -4.0420   -1.6090   -2.1130 o         1 MOL     -0.662766
     67 O12        -3.9800   -2.4480   -4.0490 o         1 MOL     -0.662766
     68 H28        -5.5670    0.3970   -1.3260 hn        1 MOL      0.158268
     69 H29        -7.8670   -0.9970   -2.5400 h1        1 MOL      0.116906
     70 H30        -6.0940   -0.4910   -3.8580 hc        1 MOL      0.040579
     71 H31        -6.6190   -2.1200   -3.8890 hc        1 MOL      0.040579
     72 N7         -6.5560   -2.4860    0.0090 n         1 MOL     -0.284993
     73 C23        -6.7050   -3.6780    0.8530 c3        1 MOL     -0.083090
     74 C24        -5.4410   -4.3750    1.2990 c         1 MOL      0.487131
     75 O13        -5.5570   -5.3050    2.0760 o         1 MOL     -0.576466
     76 H32        -6.0290   -1.6940    0.3600 hn        1 MOL      0.286346
     77 H33        -7.3010   -4.5160    0.4760 h1        1 MOL      0.095880
     78 H34        -7.2940   -3.3720    1.7270 h1        1 MOL      0.095880
     79 N8         -4.2670   -3.9700    0.8280 n         1 MOL     -0.210380
     80 C25        -2.9360   -4.5790    1.0470 c3        1 MOL     -0.256408
     81 C26        -1.7800   -3.5030    1.0910 c         1 MOL      0.810614
     82 O14        -1.9870   -2.3670    0.5790 o         1 MOL     -0.710376
     83 C27        -2.6660   -5.5480   -0.0920 c3        1 MOL      0.353732
     84 C28        -3.3880   -6.9050   -0.1030 c3        1 MOL     -0.410714
     85 O15        -2.8770   -4.8750   -1.2800 oh        1 MOL     -0.653310
     86 H35        -4.3480   -3.2340    0.1420 hn        1 MOL      0.163743
     87 H36        -2.9170   -5.1260    1.9900 h1        1 MOL      0.113713
     88 H37        -1.5860   -5.6280    0.0280 h1        1 MOL      0.001872
     89 H38        -3.7370   -5.0970   -1.6210 ho        1 MOL      0.456244
     90 H39        -2.8720   -7.6440   -0.7160 hc        1 MOL      0.122811
     91 H40        -3.3550   -7.3610    0.8820 hc        1 MOL      0.122811
     92 H41        -4.3990   -6.6770   -0.4370 hc        1 MOL      0.122811
     93 N9         -0.6700   -3.8950    1.7300 n         1 MOL     -0.603387
     94 C29         0.5120   -3.0430    1.9180 c3        1 MOL     -0.109959
     95 C30         1.8150   -3.5610    1.1010 c         1 MOL      0.596644
     96 O16         2.4470   -4.6020    1.3860 o         1 MOL     -0.545840
     97 C31         0.8960   -2.8030    3.3710 c3        1 MOL      0.471192
     98 C32        -0.3960   -2.8340    4.3690 c3        1 MOL      0.049376
     99 C33         1.6510   -1.4910    3.4480 c3        1 MOL     -0.794172
    100 C34        -0.1540   -3.0860    5.8310 c3        1 MOL     -0.372459
    101 H42        -0.6020   -4.8430    2.0690 hn        1 MOL      0.325858
    102 H43         0.3050   -2.0410    1.5620 h1        1 MOL      0.114374
    103 H44         1.5760   -3.6040    3.6790 hc        1 MOL     -0.059712
    104 H45        -0.9420   -3.7210    4.0420 hc        1 MOL      0.019641
    105 H46        -1.0230   -1.9600    4.2420 hc        1 MOL      0.019641
    106 H47         2.4600   -1.5500    2.7120 hc        1 MOL      0.173452
    107 H48         0.9590   -0.6700    3.2820 hc        1 MOL      0.173452
    108 H49         2.0780   -1.5090    4.4570 hc        1 MOL      0.173452
    109 H50         0.1480   -4.1180    5.9960 hc        1 MOL      0.091363
    110 H51         0.4980   -2.3490    6.2860 hc        1 MOL      0.091363
    111 H52        -1.0490   -2.8680    6.4180 hc        1 MOL      0.091363
    112 N10         2.2810   -2.7340    0.1010 n         1 MOL     -0.465654
    113 C35         3.5080   -2.9830   -0.7000 c3        1 MOL      0.055694
    114 C36         4.7980   -2.7470    0.1400 c         1 MOL      0.465849
    115 O17         4.8160   -1.9670    1.0520 o         1 MOL     -0.328196
    116 C37         3.6630   -2.3000   -2.0940 c3        1 MOL      0.081384
    117 C38         2.4490   -2.4660   -2.9420 c3        1 MOL     -0.353812
    118 O18         4.0610   -0.8670   -1.9870 oh        1 MOL     -0.575001
    119 H53         1.8360   -1.8460   -0.0690 hn        1 MOL      0.315231
    120 H54         3.5110   -4.0610   -0.9070 h1        1 MOL      0.080479
    121 H55         4.4680   -2.8140   -2.6170 h1        1 MOL      0.070117
    122 H56         3.5660   -0.3630   -2.6460 ho        1 MOL      0.398919
    123 H57         1.7610   -1.7920   -2.4310 hc        1 MOL      0.120110
    124 H58         2.4970   -2.0400   -3.9500 hc        1 MOL      0.120110
    125 H59         2.0790   -3.4910   -2.9090 hc        1 MOL      0.120110
    126 N11         5.8530   -3.3460   -0.3530 n         1 MOL     -0.424030
    127 C39         7.2210   -2.9570    0.0360 c3        1 MOL     -0.031416
    128 C40         7.4030   -1.4180    0.0900 c         1 MOL      0.164116
    129 O19         7.9120   -0.8260    1.0510 o         1 MOL     -0.428030
    130 C41         8.3030   -3.5100   -0.9150 c3        1 MOL      0.481258
    131 C42         9.7210   -3.4400   -0.3290 c3        1 MOL     -0.323546
    132 O20         8.0620   -4.8660   -1.1790 oh        1 MOL     -0.612519
    133 H60         5.7500   -3.8750   -1.2030 hn        1 MOL      0.223961
    134 H61         7.3180   -3.3530    1.0390 h1        1 MOL      0.141747
    135 H62         8.3300   -2.9970   -1.8750 h1        1 MOL     -0.051060
    136 H63         7.3750   -4.9310   -1.8580 ho        1 MOL      0.377254
    137 H64         9.8240   -3.7700    0.7020 hc        1 MOL      0.097979
    138 H65        10.4670   -3.7610   -1.0580 hc        1 MOL      0.097979
    139 H66         9.9820   -2.3870   -0.1670 hc        1 MOL      0.097979
    140 N12         7.0580   -0.7130   -0.9700 n         1 MOL     -0.128841
    141 C43         7.1570    0.7470   -1.0550 c3        1 MOL     -0.352116
    142 C44         6.3080    1.6440   -0.1080 c         1 MOL      0.341207
    143 O21         6.7640    2.6640    0.4770 o         1 MOL     -0.483344
    144 C45         6.8640    1.1930   -2.4730 c3        1 MOL      0.061359
    145 C46         7.1650    2.6260   -2.6890 c3        1 MOL     -0.103767
    146 C47         6.9230    2.9840   -4.1780 c3        1 MOL      0.055275
    147 C48         7.9170    2.3960   -5.1600 c3        1 MOL      0.043830
    148 N13         7.8050    3.0430   -6.4650 n4        1 MOL     -0.338614
    149 H67         6.5880   -1.1970   -1.7320 hn        1 MOL      0.170017
    150 H68         8.2020    0.8590   -0.7680 h1        1 MOL      0.211504
    151 H69         5.7830    1.0310   -2.5750 hc        1 MOL     -0.009778
    152 H70         7.4180    0.5950   -3.2000 hc        1 MOL     -0.009778
    153 H71         8.2100    2.7780   -2.4210 hc        1 MOL      0.066154
    154 H72         6.4460    3.2130   -2.1220 hc        1 MOL      0.066154
    155 H73         7.0110    4.0630   -4.3040 hc        1 MOL      0.005821
    156 H74         5.9300    2.6010   -4.3640 hc        1 MOL      0.005821
    157 H75         7.7490    1.3160   -5.2100 hx        1 MOL      0.077786
    158 H76         8.9030    2.4960   -4.7060 hx        1 MOL      0.077786
    159 H77         6.8300    3.1030   -6.7450 hn        1 MOL      0.277484
    160 H78         8.1510    3.9900   -6.4350 hn        1 MOL      0.277484
    161 H79         8.3520    2.5180   -7.1300 hn        1 MOL      0.277484
    162 N14         5.1150    1.1700    0.1760 n         1 MOL      0.031722
    163 C49         4.2530    1.7450    1.1520 c3        1 MOL     -0.177645
    164 C50         4.7390    1.6160    2.6320 c         1 MOL      0.378605
    165 O22         4.8750    2.6380    3.2860 o         1 MOL     -0.504316
    166 C51         2.7760    1.2680    1.0410 c3        1 MOL     -0.180613
    167 C52         2.0150    1.7540   -0.1730 c3        1 MOL      0.008964
    168 C53         0.6430    1.1030   -0.3770 c         1 MOL      0.716888
    169 O23         0.4670   -0.1350   -0.1800 o         1 MOL     -0.710793
    170 O24        -0.2670    1.8420   -0.7770 o         1 MOL     -0.710793
    171 H80         4.8690    0.2910   -0.2480 hn        1 MOL      0.325616
    172 H81         4.0740    2.7840    0.8700 h1        1 MOL      0.078447
    173 H82         2.1540    1.6200    1.8720 hc        1 MOL      0.114000
    174 H83         2.7140    0.1830    1.1290 hc        1 MOL      0.114000
    175 H84         2.6670    1.4790   -1.0070 hc        1 MOL     -0.045318
    176 H85         1.8740    2.8350   -0.1080 hc        1 MOL     -0.045318
    177 N15         5.2800    0.4440    3.0560 n         1 MOL      0.013793
    178 C54         5.9170    0.1620    4.3090 c3        1 MOL     -0.390499
    179 H86         6.9240    0.5790    4.3050 h1        1 MOL      0.132256
    180 H87         5.3420    0.6100    5.1180 h1        1 MOL      0.132256
    181 H88         5.9710   -0.9170    4.4550 h1        1 MOL      0.132256
    182 H89         5.2360   -0.3080    2.3770 hn        1 MOL      0.097936
    183 Ca1        -1.8730   -0.4240   -1.4100 Ca        1 MOL      1.727617
    184 O25        -0.0360    0.1330   -3.3070 oh        1 MOL     -0.867372
    185 O26        -0.8590   -2.7910   -2.1250 oh        1 MOL     -0.867372
    186 H90        -0.2400   -0.0750   -4.2260 ho        1 MOL      0.420311
    187 H91        -1.5420   -3.2990   -1.6870 ho        1 MOL      0.420311
    188 H92         0.8170    0.5740   -3.3470 ho        1 MOL      0.420311
    189 H93        -0.5120   -3.3900   -2.7920 ho        1 MOL      0.420311
@<TRIPOS>BOND
     1    1    2 1   
     2    1    4 1   
     3    1    5 1   
     4    1    6 1   
     5    2    3 2   
     6    2    7 1   
     7    7    8 1   
     8    7   15 1   
     9    8    9 1   
    10    8   11 1   
    11    8   16 1   
    12    9   10 2   
    13    9   19 1   
    14   11   12 1   
    15   11   17 1   
    16   11   18 1   
    17   12   13 1   
    18   12   14 1   
    19   19   20 1   
    20   19   28 1   
    21   20   21 1   
    22   20   23 1   
    23   20   29 1   
    24   21   22 2   
    25   21   41 1   
    26   23   24 1   
    27   23   30 1   
    28   23   31 1   
    29   24   25 1   
    30   24   32 1   
    31   24   33 1   
    32   25   26 1   
    33   25   34 1   
    34   25   35 1   
    35   26   27 1   
    36   26   36 1   
    37   26   37 1   
    38   27   38 1   
    39   27   39 1   
    40   27   40 1   
    41   41   42 1   
    42   41   49 1   
    43   42   43 1   
    44   42   45 1   
    45   42   50 1   
    46   43   44 2   
    47   43   53 1   
    48   45   46 1   
    49   45   51 1   
    50   45   52 1   
    51   46   47 1   
    52   46   48 1   
    53   53   54 1   
    54   53   57 1   
    55   54   55 1   
    56   54   58 1   
    57   54   59 1   
    58   55   56 2   
    59   55   60 1   
    60   60   61 1   
    61   60   68 1   
    62   61   62 1   
    63   61   64 1   
    64   61   69 1   
    65   62   63 2   
    66   62   72 1   
    67   64   65 1   
    68   64   70 1   
    69   64   71 1   
    70   65   66 1   
    71   65   67 1   
    72   72   73 1   
    73   72   76 1   
    74   73   74 1   
    75   73   77 1   
    76   73   78 1   
    77   74   75 2   
    78   74   79 1   
    79   79   80 1   
    80   79   86 1   
    81   80   81 1   
    82   80   83 1   
    83   80   87 1   
    84   81   82 2   
    85   81   93 1   
    86   83   84 1   
    87   83   85 1   
    88   83   88 1   
    89   84   90 1   
    90   84   91 1   
    91   84   92 1   
    92   85   89 1   
    93   93   94 1   
    94   93  101 1   
    95   94   95 1   
    96   94   97 1   
    97   94  102 1   
    98   95   96 2   
    99   95  112 1   
   100   97   98 1   
   101   97   99 1   
   102   97  103 1   
   103   98  100 1   
   104   98  104 1   
   105   98  105 1   
   106   99  106 1   
   107   99  107 1   
   108   99  108 1   
   109  100  109 1   
   110  100  110 1   
   111  100  111 1   
   112  112  113 1   
   113  112  119 1   
   114  113  114 1   
   115  113  116 1   
   116  113  120 1   
   117  114  115 2   
   118  114  126 1   
   119  116  117 1   
   120  116  118 1   
   121  116  121 1   
   122  117  123 1   
   123  117  124 1   
   124  117  125 1   
   125  118  122 1   
   126  126  127 1   
   127  126  133 1   
   128  127  128 1   
   129  127  130 1   
   130  127  134 1   
   131  128  129 2   
   132  128  140 1   
   133  130  131 1   
   134  130  132 1   
   135  130  135 1   
   136  131  137 1   
   137  131  138 1   
   138  131  139 1   
   139  132  136 1   
   140  140  141 1   
   141  140  149 1   
   142  141  142 1   
   143  141  144 1   
   144  141  150 1   
   145  142  143 2   
   146  142  162 1   
   147  144  145 1   
   148  144  151 1   
   149  144  152 1   
   150  145  146 1   
   151  145  153 1   
   152  145  154 1   
   153  146  147 1   
   154  146  155 1   
   155  146  156 1   
   156  147  148 1   
   157  147  157 1   
   158  147  158 1   
   159  148  159 1   
   160  148  160 1   
   161  148  161 1   
   162  162  163 1   
   163  162  171 1   
   164  163  164 1   
   165  163  166 1   
   166  163  172 1   
   167  164  165 2   
   168  164  177 1   
   169  166  167 1   
   170  166  173 1   
   171  166  174 1   
   172  167  168 1   
   173  167  175 1   
   174  167  176 1   
   175  168  169 1   
   176  168  170 1   
   177  177  178 1   
   178  177  182 1   
   179  178  179 1   
   180  178  180 1   
   181  178  181 1   
   182  184  186 1   
   183  184  188 1   
   184  185  187 1   
   185  185  189 1   
@<TRIPOS>SUBSTRUCTURE
     1 MOL         1 TEMP              0 ****  ****    0 ROOT
