@<TRIPOS>MOLECULE
MOL
  175   173     1     0     0
SMALL
resp


@<TRIPOS>ATOM
      1 C1          0.4630    4.3100    5.3110 c3        1 MOL     -0.447862
      2 C2         -0.1850    4.0980    3.9520 c         1 MOL      0.737564
      3 O1          0.4980    4.2020    2.9260 o         1 MOL     -0.568438
      4 H1          0.8370    3.3590    5.6870 hc        1 MOL      0.107450
      5 H2          1.2910    5.0120    5.2130 hc        1 MOL      0.107450
      6 H3         -0.2740    4.7110    6.0070 hc        1 MOL      0.107450
      7 N1         -1.5020    3.9330    3.9030 n         1 MOL     -0.651772
      8 C3         -2.1710    3.5000    2.6140 c3        1 MOL      0.150751
      9 C4         -2.2200    4.7600    1.6420 c         1 MOL      0.636101
     10 O2         -2.5630    5.8910    2.0250 o         1 MOL     -0.607663
     11 C5         -3.5480    2.8440    2.8990 c3        1 MOL     -0.352492
     12 C6         -4.2480    2.4080    1.5750 c         1 MOL      0.772160
     13 O3         -3.5360    1.9770    0.6810 o         1 MOL     -0.671104
     14 O4         -5.4690    2.4820    1.5260 o         1 MOL     -0.671104
     15 H4         -2.0570    4.0430    4.7440 hn        1 MOL      0.336796
     16 H5         -1.5600    2.7660    2.0780 h1        1 MOL      0.107692
     17 H6         -4.2620    3.4520    3.4400 hc        1 MOL      0.072548
     18 H7         -3.4710    1.9500    3.5170 hc        1 MOL      0.072548
     19 N2         -2.0330    4.5360    0.3530 n         1 MOL     -0.571712
     20 C7         -2.2520    5.5480   -0.7090 c3        1 MOL      0.379823
     21 C8         -3.4300    5.1630   -1.6920 c         1 MOL      0.375917
     22 O5         -3.5980    5.9510   -2.6240 o         1 MOL     -0.561065
     23 C9         -0.8970    5.7470   -1.4450 c3        1 MOL     -0.192717
     24 H8         -1.7670    3.6250   -0.0040 hn        1 MOL      0.291121
     25 H9         -2.4380    6.5390   -0.2870 h1        1 MOL      0.006345
     26 H10        -0.7590    4.9880   -2.2250 hc        1 MOL      0.042499
     27 H11        -0.9420    6.7110   -1.9410 hc        1 MOL      0.042499
     28 H12        -0.0130    5.7280   -0.8040 hc        1 MOL      0.042499
     29 N3         -4.1280    4.0300   -1.6020 n         1 MOL     -0.420276
     30 C10        -4.8490    3.4490   -2.7890 c3        1 MOL      0.353289
     31 C11        -6.0990    2.6500   -2.4570 c         1 MOL      0.281717
     32 O6         -6.9610    2.5540   -3.3090 o         1 MOL     -0.543808
     33 C12        -3.9340    2.5300   -3.5750 c3        1 MOL     -0.412242
     34 C13        -3.3460    1.2190   -2.9390 c         1 MOL      0.914782
     35 O7         -4.0310    0.5070   -2.1860 o         1 MOL     -0.789852
     36 O8         -2.1180    1.0320   -2.9370 o         1 MOL     -0.789852
     37 H13        -3.8670    3.4940   -0.7890 hn        1 MOL      0.213058
     38 H14        -5.1740    4.2830   -3.4030 h1        1 MOL      0.048317
     39 H15        -3.2030    3.2030   -4.0120 hc        1 MOL      0.086341
     40 H16        -4.5190    2.0750   -4.3650 hc        1 MOL      0.086341
     41 N4         -6.2320    1.9830   -1.2570 n         1 MOL     -0.075612
     42 C14        -7.4360    1.2620   -0.7030 c3        1 MOL     -0.183339
     43 C15        -7.4360   -0.2760   -1.0380 c         1 MOL      0.417659
     44 O9         -8.4970   -0.9190   -0.6690 o         1 MOL     -0.603065
     45 H17        -5.4180    2.0870   -0.6660 hn        1 MOL      0.034044
     46 H18        -8.3040    1.7550   -1.1400 h1        1 MOL      0.126576
     47 H19        -7.5530    1.3590    0.3800 h1        1 MOL      0.126576
     48 N5         -6.4520   -0.8650   -1.7120 n         1 MOL     -0.226245
     49 C16        -6.4650   -2.3380   -2.0370 c3        1 MOL     -0.048514
     50 C17        -6.5150   -3.2930   -0.7880 c         1 MOL      0.541518
     51 O10        -6.7960   -4.4880   -0.9650 o         1 MOL     -0.568217
     52 C18        -5.2290   -2.6680   -2.9270 c3        1 MOL     -0.188002
     53 C19        -3.8640   -2.4870   -2.3250 c         1 MOL      0.687841
     54 N6         -2.8130   -2.4630   -3.2160 n         1 MOL     -0.740257
     55 O11        -3.6390   -2.2220   -1.1660 o         1 MOL     -0.634492
     56 H20        -5.6290   -0.3230   -1.9590 hn        1 MOL      0.273367
     57 H21        -7.3110   -2.5430   -2.6810 h1        1 MOL      0.106694
     58 H22        -5.3510   -1.9470   -3.7350 hc        1 MOL      0.058680
     59 H23        -5.3270   -3.6890   -3.2860 hc        1 MOL      0.058680
     60 H24        -2.9750   -2.5630   -4.2070 hn        1 MOL      0.340037
     61 H25        -1.9020   -2.2240   -2.8550 hn        1 MOL      0.340037
     62 N7         -6.2570   -2.8130    0.4150 n         1 MOL     -0.285189
     63 C20        -6.1190   -3.7020    1.6480 c3        1 MOL     -0.228889
     64 C21        -4.7690   -4.1880    2.0590 c         1 MOL      0.533536
     65 O12        -4.6270   -4.9370    2.9860 o         1 MOL     -0.604338
     66 H26        -5.7260   -1.9660    0.4160 hn        1 MOL      0.268267
     67 H27        -6.6450   -4.6020    1.3410 h1        1 MOL      0.126124
     68 H28        -6.5620   -3.1840    2.4960 h1        1 MOL      0.126124
     69 N8         -3.6730   -3.8170    1.4570 n         1 MOL     -0.156037
     70 C22        -2.3230   -4.4220    1.6220 c3        1 MOL     -0.228316
     71 C23        -1.2690   -3.3470    1.4980 c         1 MOL      0.385219
     72 O13        -1.4320   -2.3760    0.7790 o         1 MOL     -0.380062
     73 C24        -2.1000   -5.5500    0.5980 c3        1 MOL      0.538917
     74 C25        -3.0450   -6.7680    0.8120 c3        1 MOL     -0.552613
     75 O14        -2.3190   -5.0570   -0.6570 oh        1 MOL     -0.572752
     76 H29        -3.8290   -3.1590    0.6970 hn        1 MOL      0.214596
     77 H30        -2.3170   -4.8610    2.6230 h1        1 MOL      0.112167
     78 H31        -1.1050   -5.9710    0.6810 h1        1 MOL     -0.053267
     79 H32        -1.9100   -4.1930   -0.7510 ho        1 MOL      0.322192
     80 H33        -2.7290   -7.5940    0.1670 hc        1 MOL      0.141611
     81 H34        -3.0740   -7.0700    1.8550 hc        1 MOL      0.141611
     82 H35        -4.0460   -6.6040    0.4070 hc        1 MOL      0.141611
     83 N9         -0.2430   -3.4850    2.2710 n         1 MOL     -0.356759
     84 C26         1.0420   -2.6980    2.1360 c3        1 MOL     -0.134104
     85 C27         1.8190   -3.0720    0.8960 c         1 MOL      0.766132
     86 O15         2.3220   -4.1940    0.7710 o         1 MOL     -0.637454
     87 C28         1.8740   -2.6150    3.3990 c3        1 MOL     -0.032940
     88 C29         1.2220   -1.7720    4.5070 c3        1 MOL      0.276542
     89 C30         3.3540   -2.1250    3.0900 c3        1 MOL     -0.140007
     90 C31         1.9340   -1.6150    5.8400 c3        1 MOL     -0.264124
     91 H36        -0.1690   -4.3070    2.8650 hn        1 MOL      0.275929
     92 H37         0.9290   -1.6210    2.0360 h1        1 MOL      0.008194
     93 H38         1.9530   -3.6210    3.7930 hc        1 MOL      0.016755
     94 H39         0.2670   -2.2290    4.7610 hc        1 MOL     -0.048210
     95 H40         0.9830   -0.7720    4.1380 hc        1 MOL     -0.048210
     96 H41         3.9920   -1.9570    3.9580 hc        1 MOL      0.031448
     97 H42         3.9160   -2.8290    2.4780 hc        1 MOL      0.031448
     98 H43         3.2760   -1.2380    2.4640 hc        1 MOL      0.031448
     99 H44         2.7540   -0.9260    5.6490 hc        1 MOL      0.053644
    100 H45         1.2050   -1.1890    6.5220 hc        1 MOL      0.053644
    101 H46         2.2960   -2.5850    6.1780 hc        1 MOL      0.053644
    102 N10         1.8030   -2.1710   -0.0500 n         1 MOL     -0.431816
    103 C32         2.6400   -2.1690   -1.2620 c3        1 MOL      0.036575
    104 C33         4.0100   -1.7040   -0.8250 c         1 MOL      0.487451
    105 O16         4.1830   -0.8980    0.0890 o         1 MOL     -0.317427
    106 C34         1.9410   -1.3040   -2.3740 c3        1 MOL     -0.367459
    107 C35         0.4840   -1.6280   -2.5190 c         1 MOL      0.806204
    108 O17        -0.3870   -1.2560   -1.7010 o         1 MOL     -0.682157
    109 O18         0.1300   -2.1960   -3.5880 o         1 MOL     -0.682157
    110 H47         1.4010   -1.2870    0.2400 hn        1 MOL      0.239210
    111 H48         2.7330   -3.1960   -1.6260 h1        1 MOL      0.098907
    112 H49         2.3580   -1.4430   -3.3750 hc        1 MOL      0.096881
    113 H50         1.9380   -0.2460   -2.1310 hc        1 MOL      0.096881
    114 N11         5.0190   -2.1140   -1.5990 n         1 MOL     -0.756748
    115 C36         6.4450   -1.6420   -1.3270 c3        1 MOL      0.572612
    116 C37         6.6310   -0.1200   -1.0830 c         1 MOL      0.288444
    117 O19         7.3750    0.1690   -0.1210 o         1 MOL     -0.469830
    118 C38         7.3890   -2.1880   -2.4450 c3        1 MOL     -0.303786
    119 C39         8.9070   -1.9720   -2.2360 ca        1 MOL      0.149041
    120 C40         9.5980   -2.6810   -1.2650 ca        1 MOL     -0.208657
    121 C41         9.3730   -0.8620   -2.9300 ca        1 MOL     -0.208657
    122 C42        10.8060   -2.1370   -0.8000 ca        1 MOL     -0.106644
    123 C43        10.7280   -0.4140   -2.5860 ca        1 MOL     -0.106644
    124 C44        11.3600   -1.0500   -1.4970 ca        1 MOL     -0.116513
    125 H51         4.9140   -2.8070   -2.3270 hn        1 MOL      0.359056
    126 H52         6.8550   -2.1260   -0.4450 h1        1 MOL     -0.014675
    127 H53         7.1040   -1.7430   -3.4020 hc        1 MOL      0.063380
    128 H54         7.2950   -3.2730   -2.4740 hc        1 MOL      0.063380
    129 H55         9.1090   -3.4840   -0.7270 ha        1 MOL      0.143186
    130 H56         8.7940   -0.3930   -3.7090 ha        1 MOL      0.143186
    131 H57        11.2390   -2.5870    0.0760 ha        1 MOL      0.121465
    132 H58        11.1240    0.5060   -2.9750 ha        1 MOL      0.121465
    133 H59        12.2520   -0.6280   -1.0720 ha        1 MOL      0.101544
    134 N12         6.1030    0.8430   -1.8850 n         1 MOL     -0.068054
    135 C45         6.2970    2.2180   -1.5620 c3        1 MOL      0.097436
    136 C46         5.6970    2.7110   -0.1940 c         1 MOL      0.236716
    137 O20         6.3550    3.5110    0.4880 o         1 MOL     -0.485035
    138 C47         5.5700    3.0230   -2.6980 c3        1 MOL     -0.016957
    139 C48         5.7110    2.0160   -3.8630 c3        1 MOL     -0.035402
    140 C49         5.3240    0.6810   -3.0810 c3        1 MOL     -0.252398
    141 H60         7.3530    2.4960   -1.5010 h1        1 MOL      0.047188
    142 H61         4.5200    3.2030   -2.4710 hc        1 MOL      0.030700
    143 H62         6.1570    3.9030   -2.9380 hc        1 MOL      0.030700
    144 H63         4.9990    2.1870   -4.6790 hc        1 MOL      0.028292
    145 H64         6.7200    1.9750   -4.2670 hc        1 MOL      0.028292
    146 H65         4.2410    0.7680   -2.9560 h1        1 MOL      0.127112
    147 H66         5.6900   -0.1820   -3.6450 h1        1 MOL      0.127112
    148 N13         4.5980    2.0940    0.1700 n         1 MOL      0.012051
    149 C50         4.0060    2.1960    1.4860 c3        1 MOL     -0.277063
    150 C51         4.8830    1.6650    2.6790 c         1 MOL      0.380854
    151 O21         4.8480    2.2510    3.7810 o         1 MOL     -0.535917
    152 C52         2.6120    1.5520    1.5170 c3        1 MOL     -0.004322
    153 C53         1.7210    2.0490    0.3310 c3        1 MOL     -0.399199
    154 C54         0.3220    1.5230    0.4450 c         1 MOL      0.634950
    155 O22        -0.5770    2.0780   -0.2220 o         1 MOL     -0.664675
    156 O23         0.1010    0.4170    0.9280 o         1 MOL     -0.664675
    157 H67         4.1530    1.3650   -0.3730 hn        1 MOL      0.086093
    158 H68         3.8810    3.2620    1.6840 h1        1 MOL      0.172847
    159 H69         2.0600    1.7800    2.4270 hc        1 MOL      0.088634
    160 H70         2.6390    0.4690    1.4850 hc        1 MOL      0.088634
    161 H71         2.0970    1.5910   -0.5910 hc        1 MOL      0.150228
    162 H72         1.6810    3.1290    0.2860 hc        1 MOL      0.150228
    163 N14         5.7810    0.7140    2.3880 n         1 MOL      0.117687
    164 C55         6.7300    0.1940    3.2890 c3        1 MOL     -0.205566
    165 H73         6.5790   -0.8810    3.3960 h1        1 MOL      0.068516
    166 H74         7.7340    0.3820    2.9090 h1        1 MOL      0.068516
    167 H75         6.6130    0.6750    4.2600 h1        1 MOL      0.068516
    168 H76         5.6330    0.2300    1.5150 hn        1 MOL     -0.004031
    169 Ca1        -2.1120    0.0500   -0.4450 Ca        1 MOL      1.735161
    170 O24        -1.7470    0.0660    2.8310 oh        1 MOL     -0.845249
    171 H77        -0.8670   -0.1940    2.5770 ho        1 MOL      0.404758
    172 H78        -1.6840    0.3010    3.7530 ho        1 MOL      0.404758
    173 O25        -3.9270   -0.9120    1.3610 oh        1 MOL     -0.845249
    174 H79        -3.2460   -0.6450    1.9700 ho        1 MOL      0.404758
    175 H80        -4.7020   -0.4140    1.6160 ho        1 MOL      0.404758
@<TRIPOS>BOND
     1    1    2 1   
     2    1    4 1   
     3    1    5 1   
     4    1    6 1   
     5    2    3 2   
     6    2    7 1   
     7    7    8 1   
     8    7   15 1   
     9    8    9 1   
    10    8   11 1   
    11    8   16 1   
    12    9   10 2   
    13    9   19 1   
    14   11   12 1   
    15   11   17 1   
    16   11   18 1   
    17   12   13 1   
    18   12   14 1   
    19   19   20 1   
    20   19   24 1   
    21   20   21 1   
    22   20   23 1   
    23   20   25 1   
    24   21   22 2   
    25   21   29 1   
    26   23   26 1   
    27   23   27 1   
    28   23   28 1   
    29   29   30 1   
    30   29   37 1   
    31   30   31 1   
    32   30   33 1   
    33   30   38 1   
    34   31   32 2   
    35   31   41 1   
    36   33   34 1   
    37   33   39 1   
    38   33   40 1   
    39   34   35 1   
    40   34   36 1   
    41   41   42 1   
    42   41   45 1   
    43   42   43 1   
    44   42   46 1   
    45   42   47 1   
    46   43   44 2   
    47   43   48 1   
    48   48   49 1   
    49   48   56 1   
    50   49   50 1   
    51   49   52 1   
    52   49   57 1   
    53   50   51 2   
    54   50   62 1   
    55   52   53 1   
    56   52   58 1   
    57   52   59 1   
    58   53   54 1   
    59   53   55 2   
    60   54   60 1   
    61   54   61 1   
    62   62   63 1   
    63   62   66 1   
    64   63   64 1   
    65   63   67 1   
    66   63   68 1   
    67   64   65 2   
    68   64   69 1   
    69   69   70 1   
    70   69   76 1   
    71   70   71 1   
    72   70   73 1   
    73   70   77 1   
    74   71   72 2   
    75   71   83 1   
    76   73   74 1   
    77   73   75 1   
    78   73   78 1   
    79   74   80 1   
    80   74   81 1   
    81   74   82 1   
    82   75   79 1   
    83   83   84 1   
    84   83   91 1   
    85   84   85 1   
    86   84   87 1   
    87   84   92 1   
    88   85   86 2   
    89   85  102 1   
    90   87   88 1   
    91   87   89 1   
    92   87   93 1   
    93   88   90 1   
    94   88   94 1   
    95   88   95 1   
    96   89   96 1   
    97   89   97 1   
    98   89   98 1   
    99   90   99 1   
   100   90  100 1   
   101   90  101 1   
   102  102  103 1   
   103  102  110 1   
   104  103  104 1   
   105  103  106 1   
   106  103  111 1   
   107  104  105 2   
   108  104  114 1   
   109  106  107 1   
   110  106  112 1   
   111  106  113 1   
   112  107  108 1   
   113  107  109 1   
   114  114  115 1   
   115  114  125 1   
   116  115  116 1   
   117  115  118 1   
   118  115  126 1   
   119  116  117 2   
   120  116  134 1   
   121  118  119 1   
   122  118  127 1   
   123  118  128 1   
   124  119  120 ar  
   125  119  121 ar  
   126  120  122 ar  
   127  120  129 1   
   128  121  123 ar  
   129  121  130 1   
   130  122  124 ar  
   131  122  131 1   
   132  123  124 ar  
   133  123  132 1   
   134  124  133 1   
   135  134  135 1   
   136  134  140 1   
   137  135  136 1   
   138  135  138 1   
   139  135  141 1   
   140  136  137 2   
   141  136  148 1   
   142  138  139 1   
   143  138  142 1   
   144  138  143 1   
   145  139  140 1   
   146  139  144 1   
   147  139  145 1   
   148  140  146 1   
   149  140  147 1   
   150  148  149 1   
   151  148  157 1   
   152  149  150 1   
   153  149  152 1   
   154  149  158 1   
   155  150  151 2   
   156  150  163 1   
   157  152  153 1   
   158  152  159 1   
   159  152  160 1   
   160  153  154 1   
   161  153  161 1   
   162  153  162 1   
   163  154  155 1   
   164  154  156 1   
   165  163  164 1   
   166  163  168 1   
   167  164  165 1   
   168  164  166 1   
   169  164  167 1   
   170  170  171 1   
   171  170  172 1   
   172  173  174 1   
   173  173  175 1   
@<TRIPOS>SUBSTRUCTURE
     1 MOL         1 TEMP              0 ****  ****    0 ROOT
