@<TRIPOS>MOLECULE
MOL
  179   176     1     0     0
SMALL
resp


@<TRIPOS>ATOM
      1 C1         -1.4930   -3.9430    5.7420 c3        1 MOL     -0.457038
      2 C2         -1.1180   -3.5410    4.3440 c         1 MOL      0.728938
      3 O1         -1.9860   -3.4280    3.5170 o         1 MOL     -0.592223
      4 H1         -1.4970   -5.0310    5.8190 hc        1 MOL      0.120952
      5 H2         -0.7690   -3.5330    6.4460 hc        1 MOL      0.120952
      6 H3         -2.4860   -3.5600    5.9780 hc        1 MOL      0.120952
      7 N1          0.1510   -3.2730    3.9800 n         1 MOL     -0.495326
      8 C3          0.6080   -2.8750    2.6720 c3        1 MOL     -0.009913
      9 C4          0.7710   -4.0970    1.8380 c         1 MOL      0.477130
     10 O2          1.6630   -4.9390    2.0810 o         1 MOL     -0.539216
     11 C5          1.9010   -2.1070    2.9550 c3        1 MOL      0.004968
     12 C6          2.6780   -1.5360    1.7750 c         1 MOL      0.701427
     13 O3          3.8130   -1.0300    1.9120 o         1 MOL     -0.741563
     14 O4          2.1340   -1.6580    0.6440 o         1 MOL     -0.741563
     15 H4          0.8400   -3.3470    4.7130 hn        1 MOL      0.283239
     16 H5         -0.0850   -2.2260    2.1390 h1        1 MOL     -0.021561
     17 H6          2.6450   -2.6780    3.5170 hc        1 MOL      0.029048
     18 H7          1.7890   -1.3220    3.7000 hc        1 MOL      0.029048
     19 N2          0.0580   -4.1740    0.6950 n         1 MOL     -0.191557
     20 C7         -0.0730   -5.4240   -0.1560 c3        1 MOL     -0.084260
     21 C8          1.1420   -5.7420   -1.0600 c         1 MOL      0.465220
     22 O5          1.2410   -6.7830   -1.6960 o         1 MOL     -0.552812
     23 C9         -1.3480   -5.3350   -1.0170 c3        1 MOL      0.023334
     24 C10        -2.6520   -5.6360   -0.4280 c3        1 MOL     -0.094639
     25 C11        -3.7460   -5.4490   -1.4810 c3        1 MOL      0.010509
     26 C12        -5.1600   -5.5190   -0.8780 c3        1 MOL     -0.023134
     27 N3         -6.2750   -5.2750   -1.8290 n4        1 MOL     -0.330692
     28 H8         -0.4790   -3.3700    0.4030 hn        1 MOL      0.238595
     29 H9         -0.3090   -6.2730    0.4790 h1        1 MOL      0.100071
     30 H10        -1.2500   -6.0080   -1.8730 hc        1 MOL      0.030602
     31 H11        -1.4550   -4.3090   -1.3790 hc        1 MOL      0.030602
     32 H12        -2.7250   -4.8730    0.3560 hc        1 MOL      0.050817
     33 H13        -2.7460   -6.6790   -0.1280 hc        1 MOL      0.050817
     34 H14        -3.5630   -6.2070   -2.2440 hc        1 MOL      0.021316
     35 H15        -3.5510   -4.4720   -1.9180 hc        1 MOL      0.021316
     36 H16        -5.2110   -4.8660   -0.0050 hx        1 MOL      0.104269
     37 H17        -5.3140   -6.5400   -0.5380 hx        1 MOL      0.104269
     38 H18        -7.1860   -5.4410   -1.4270 hn        1 MOL      0.320704
     39 H19        -6.3290   -4.3230   -2.1550 hn        1 MOL      0.320704
     40 H20        -6.2880   -5.9390   -2.5980 hn        1 MOL      0.320704
     41 N4          2.0830   -4.7920   -1.2050 n         1 MOL     -0.279512
     42 C13         3.4030   -5.0230   -1.8930 c3        1 MOL      0.076592
     43 C14         4.5790   -4.6040   -0.9930 c         1 MOL      0.317295
     44 O6          5.7520   -4.6800   -1.3830 o         1 MOL     -0.483160
     45 C15         3.5470   -4.2740   -3.2040 c3        1 MOL     -0.334178
     46 C16         3.3590   -2.7260   -3.1420 c         1 MOL      0.758493
     47 O7          2.9490   -2.2340   -2.0850 o         1 MOL     -0.688591
     48 O8          3.5380   -2.0690   -4.2370 o         1 MOL     -0.688591
     49 H21         1.8640   -3.8460   -0.9320 hn        1 MOL      0.132259
     50 H22         3.4600   -6.1100   -1.9940 h1        1 MOL      0.121157
     51 H23         2.8900   -4.7810   -3.9120 hc        1 MOL      0.090679
     52 H24         4.5310   -4.5990   -3.5580 hc        1 MOL      0.090679
     53 N5          4.3080   -4.0930    0.2270 n         1 MOL     -0.088909
     54 C17         5.3890   -3.6470    1.1200 c3        1 MOL     -0.377881
     55 C18         6.3310   -2.5650    0.6120 c         1 MOL      0.537268
     56 O9          7.5180   -2.5580    0.9560 o         1 MOL     -0.575617
     57 H25         3.3530   -3.9750    0.5280 hn        1 MOL      0.143179
     58 H26         6.0560   -4.5020    1.1710 h1        1 MOL      0.157389
     59 H27         4.9340   -3.3130    2.0630 h1        1 MOL      0.157389
     60 N6          5.8330   -1.6500   -0.1640 n         1 MOL     -0.195918
     61 C19         6.6110   -0.4690   -0.6740 c3        1 MOL     -0.160398
     62 C20         6.6860    0.7570    0.2640 c         1 MOL      0.276024
     63 O10         7.3370    1.7290   -0.1260 o         1 MOL     -0.476292
     64 C21         5.8880   -0.1080   -2.0220 c3        1 MOL     -0.032268
     65 C22         4.7430    0.8300   -1.8580 c         1 MOL      0.419943
     66 N7          4.8440    2.0560   -2.3520 n         1 MOL     -0.551378
     67 O11         3.6680    0.4550   -1.3750 o         1 MOL     -0.587530
     68 H28         4.8370   -1.7490   -0.3320 hn        1 MOL      0.308165
     69 H29         7.5930   -0.8000   -0.9960 h1        1 MOL      0.165658
     70 H30         5.4540   -1.0100   -2.4430 hc        1 MOL      0.057792
     71 H31         6.6200    0.2630   -2.7490 hc        1 MOL      0.057792
     72 H32         5.7290    2.2840   -2.7760 hn        1 MOL      0.307403
     73 H33         4.0190    2.5630   -2.6510 hn        1 MOL      0.307403
     74 N8          5.9010    0.8440    1.3260 n         1 MOL      0.044881
     75 C23         5.9370    1.8620    2.3800 c3        1 MOL     -0.525262
     76 C24         4.7870    2.8070    2.1520 c         1 MOL      0.797530
     77 O12         4.6870    3.7980    2.9050 o         1 MOL     -0.586440
     78 H34         5.2610    0.0600    1.4040 hn        1 MOL      0.191358
     79 H35         6.8540    2.3940    2.1420 h1        1 MOL      0.202658
     80 H36         5.9180    1.2600    3.2870 h1        1 MOL      0.202658
     81 N9          3.9040    2.5670    1.1770 n         1 MOL     -0.645495
     82 C25         2.7760    3.4250    0.7680 c3        1 MOL      0.251336
     83 C26         1.4520    2.6800    0.5610 c         1 MOL      0.687169
     84 O13         1.4060    1.5500    0.0500 o         1 MOL     -0.658653
     85 C27         3.1340    4.2830   -0.4940 c3        1 MOL     -0.017535
     86 C28         4.2840    5.3280   -0.2560 ca        1 MOL     -0.071544
     87 C29         5.6220    4.9060   -0.3010 ca        1 MOL     -0.009733
     88 C30         4.0950    6.7330   -0.2320 ca        1 MOL     -0.009733
     89 C31         6.6880    5.7990   -0.3230 ca        1 MOL     -0.354077
     90 C32         5.1310    7.6130   -0.2860 ca        1 MOL     -0.354077
     91 C33         6.4460    7.1290   -0.2670 ca        1 MOL      0.441702
     92 O14         7.5450    7.9710   -0.3950 oh        1 MOL     -0.500748
     93 H37         3.8920    1.7130    0.6380 hn        1 MOL      0.400263
     94 H38         2.6680    4.1360    1.5930 h1        1 MOL      0.000464
     95 H39         2.2250    4.8300   -0.7760 hc        1 MOL     -0.019985
     96 H40         3.2170    3.5990   -1.3360 hc        1 MOL     -0.019985
     97 H41         5.8350    3.8480   -0.3620 ha        1 MOL      0.069401
     98 H42         3.0930    7.1110   -0.3200 ha        1 MOL      0.069401
     99 H43         7.7140    5.4410   -0.3500 ha        1 MOL      0.159695
    100 H44         5.0500    8.6700   -0.4720 ha        1 MOL      0.159695
    101 H45         7.3090    8.8960   -0.5340 ho        1 MOL      0.342649
    102 N10         0.4160    3.2630    1.1030 n         1 MOL     -0.686153
    103 C34        -0.9990    2.7830    1.0970 c3        1 MOL      0.130652
    104 C35        -1.9120    3.6800    0.3380 c         1 MOL      0.677321
    105 O15        -1.9350    4.8530    0.6650 o         1 MOL     -0.561229
    106 C36        -1.3440    2.3290    2.5870 c3        1 MOL     -0.021078
    107 C37        -0.8120    0.8780    2.8130 c3        1 MOL      0.260037
    108 C38        -2.8460    2.4970    2.9560 c3        1 MOL     -0.143244
    109 C39        -1.0530    0.3200    4.2410 c3        1 MOL     -0.139222
    110 H46         0.5600    4.1640    1.5240 hn        1 MOL      0.345379
    111 H47        -1.0480    1.8850    0.4930 h1        1 MOL     -0.061422
    112 H48        -0.8830    2.9880    3.3120 hc        1 MOL      0.041449
    113 H49         0.2260    0.8140    2.4910 hc        1 MOL     -0.049882
    114 H50        -1.5010    0.2790    2.2220 hc        1 MOL     -0.049882
    115 H51        -3.1180    3.5490    2.8680 hc        1 MOL      0.020756
    116 H52        -3.4960    1.9480    2.2870 hc        1 MOL      0.020756
    117 H53        -2.9640    2.2030    4.0010 hc        1 MOL      0.020756
    118 H54        -0.4580   -0.5960    4.2640 hc        1 MOL      0.022104
    119 H55        -0.6520    1.0800    4.9200 hc        1 MOL      0.022104
    120 H56        -2.1220    0.1080    4.3460 hc        1 MOL      0.022104
    121 N11        -2.5410    3.0830   -0.6730 n         1 MOL     -0.587845
    122 C40        -3.6740    3.7470   -1.3750 c3        1 MOL      0.168516
    123 C41        -4.9790    3.6870   -0.5640 c         1 MOL      0.300257
    124 O16        -5.0670    2.9710    0.4430 o         1 MOL     -0.240972
    125 C42        -3.8150    3.1090   -2.7670 c3        1 MOL     -0.356809
    126 O17        -4.4210    1.7770   -2.6410 oh        1 MOL     -0.378540
    127 H57        -2.2700    2.1480   -0.9440 hn        1 MOL      0.455325
    128 H58        -3.4340    4.7890   -1.5820 h1        1 MOL      0.067796
    129 H59        -2.8230    3.0660   -3.2180 h1        1 MOL      0.162954
    130 H60        -4.4930    3.7460   -3.3370 h1        1 MOL      0.162954
    131 H61        -4.6230    1.4020   -3.5020 ho        1 MOL      0.353243
    132 N12        -6.0460    4.4150   -0.9800 n         1 MOL     -0.437801
    133 C43        -7.4100    4.2790   -0.3370 c3        1 MOL      0.211685
    134 C44        -7.9380    2.8420   -0.5040 c         1 MOL      0.342068
    135 O18        -8.5140    2.2690    0.4180 o         1 MOL     -0.474997
    136 C45        -8.4100    5.2460   -0.9380 c3        1 MOL     -0.518137
    137 H62        -5.9870    5.0020   -1.7940 hn        1 MOL      0.294239
    138 H63        -7.2810    4.5130    0.7180 h1        1 MOL      0.091579
    139 H64        -8.4400    5.2690   -2.0200 hc        1 MOL      0.157739
    140 H65        -9.3850    4.9340   -0.5510 hc        1 MOL      0.157739
    141 H66        -8.1980    6.2260   -0.5050 hc        1 MOL      0.157739
    142 N13        -7.7390    2.1890   -1.6410 n         1 MOL     -0.279489
    143 C46        -8.1050    0.7630   -1.8630 c3        1 MOL      0.084480
    144 C47        -7.4010   -0.2050   -0.8450 c         1 MOL      0.366365
    145 O19        -7.9650   -1.1200   -0.3000 o         1 MOL     -0.504763
    146 C48        -7.8350    0.4560   -3.3660 c3        1 MOL     -0.326001
    147 H67        -7.3430    2.6710   -2.4280 hn        1 MOL      0.226854
    148 H68        -9.1610    0.5410   -1.7100 h1        1 MOL      0.100450
    149 H69        -6.8550    0.6710   -3.7860 hc        1 MOL      0.090665
    150 H70        -8.0740   -0.5920   -3.5920 hc        1 MOL      0.090665
    151 H71        -8.5370    1.0600   -3.9280 hc        1 MOL      0.090665
    152 N14        -6.1070    0.0680   -0.4950 n         1 MOL     -0.065278
    153 C49        -5.3440   -0.6430    0.5680 c3        1 MOL     -0.075208
    154 C50        -5.7910   -0.4050    2.0100 c         1 MOL      0.502629
    155 O20        -5.9580   -1.3990    2.7810 o         1 MOL     -0.548293
    156 C51        -3.8420   -0.3820    0.3490 c3        1 MOL     -0.394804
    157 C52        -3.3230   -1.2110   -0.8970 c3        1 MOL     -0.138573
    158 C53        -1.8070   -0.8680   -1.0230 c         1 MOL      0.680839
    159 O21        -0.9500   -1.7620   -0.8500 o         1 MOL     -0.729355
    160 O22        -1.4360    0.2030   -1.5580 o         1 MOL     -0.729355
    161 H72        -5.6200    0.8030   -0.9940 hn        1 MOL      0.047732
    162 H73        -5.4900   -1.7150    0.4110 h1        1 MOL      0.071522
    163 H74        -3.2950   -0.8610    1.1520 hc        1 MOL      0.221742
    164 H75        -3.7700    0.7040    0.2890 hc        1 MOL      0.221742
    165 H76        -3.8610   -1.0450   -1.8250 hc        1 MOL      0.039371
    166 H77        -3.4500   -2.2580   -0.6490 hc        1 MOL      0.039371
    167 N15        -6.1450    0.8830    2.2930 n         1 MOL     -0.019752
    168 C54        -6.7800    1.3390    3.5380 c3        1 MOL     -0.466781
    169 H78        -6.5820    0.6170    4.3320 h1        1 MOL      0.158949
    170 H79        -6.3730    2.3090    3.8210 h1        1 MOL      0.158949
    171 H80        -7.8560    1.4260    3.3880 h1        1 MOL      0.158949
    172 H81        -5.8520    1.5750    1.6080 hn        1 MOL      0.074627
    173 Ca1         1.2170   -0.6040   -1.4870 Ca        1 MOL      1.783875
    174 O23         0.7120   -0.9800   -3.9540 oh        1 MOL     -0.887147
    175 H82         0.0020   -0.3370   -4.0160 ho        1 MOL      0.429132
    176 H83         0.9110   -1.1980   -4.8620 ho        1 MOL      0.429132
    177 O24         0.8800    1.6870   -2.8390 oh        1 MOL     -0.887147
    178 H84         0.1480    1.9270   -3.4010 ho        1 MOL      0.429132
    179 H85         1.4310    2.4710   -2.8030 ho        1 MOL      0.429132
@<TRIPOS>BOND
     1    1    2 1   
     2    1    4 1   
     3    1    5 1   
     4    1    6 1   
     5    2    3 2   
     6    2    7 1   
     7    7    8 1   
     8    7   15 1   
     9    8    9 1   
    10    8   11 1   
    11    8   16 1   
    12    9   10 2   
    13    9   19 1   
    14   11   12 1   
    15   11   17 1   
    16   11   18 1   
    17   12   13 1   
    18   12   14 1   
    19   19   20 1   
    20   19   28 1   
    21   20   21 1   
    22   20   23 1   
    23   20   29 1   
    24   21   22 2   
    25   21   41 1   
    26   23   24 1   
    27   23   30 1   
    28   23   31 1   
    29   24   25 1   
    30   24   32 1   
    31   24   33 1   
    32   25   26 1   
    33   25   34 1   
    34   25   35 1   
    35   26   27 1   
    36   26   36 1   
    37   26   37 1   
    38   27   38 1   
    39   27   39 1   
    40   27   40 1   
    41   41   42 1   
    42   41   49 1   
    43   42   43 1   
    44   42   45 1   
    45   42   50 1   
    46   43   44 2   
    47   43   53 1   
    48   45   46 1   
    49   45   51 1   
    50   45   52 1   
    51   46   47 1   
    52   46   48 1   
    53   53   54 1   
    54   53   57 1   
    55   54   55 1   
    56   54   58 1   
    57   54   59 1   
    58   55   56 2   
    59   55   60 1   
    60   60   61 1   
    61   60   68 1   
    62   61   62 1   
    63   61   64 1   
    64   61   69 1   
    65   62   63 2   
    66   62   74 1   
    67   64   65 1   
    68   64   70 1   
    69   64   71 1   
    70   65   66 1   
    71   65   67 2   
    72   66   72 1   
    73   66   73 1   
    74   74   75 1   
    75   74   78 1   
    76   75   76 1   
    77   75   79 1   
    78   75   80 1   
    79   76   77 2   
    80   76   81 1   
    81   81   82 1   
    82   81   93 1   
    83   82   83 1   
    84   82   85 1   
    85   82   94 1   
    86   83   84 2   
    87   83  102 1   
    88   85   86 1   
    89   85   95 1   
    90   85   96 1   
    91   86   87 ar  
    92   86   88 ar  
    93   87   89 ar  
    94   87   97 1   
    95   88   90 ar  
    96   88   98 1   
    97   89   91 ar  
    98   89   99 1   
    99   90   91 ar  
   100   90  100 1   
   101   91   92 1   
   102   92  101 1   
   103  102  103 1   
   104  102  110 1   
   105  103  104 1   
   106  103  106 1   
   107  103  111 1   
   108  104  105 2   
   109  104  121 1   
   110  106  107 1   
   111  106  108 1   
   112  106  112 1   
   113  107  109 1   
   114  107  113 1   
   115  107  114 1   
   116  108  115 1   
   117  108  116 1   
   118  108  117 1   
   119  109  118 1   
   120  109  119 1   
   121  109  120 1   
   122  121  122 1   
   123  121  127 1   
   124  122  123 1   
   125  122  125 1   
   126  122  128 1   
   127  123  124 2   
   128  123  132 1   
   129  125  126 1   
   130  125  129 1   
   131  125  130 1   
   132  126  131 1   
   133  132  133 1   
   134  132  137 1   
   135  133  134 1   
   136  133  136 1   
   137  133  138 1   
   138  134  135 2   
   139  134  142 1   
   140  136  139 1   
   141  136  140 1   
   142  136  141 1   
   143  142  143 1   
   144  142  147 1   
   145  143  144 1   
   146  143  146 1   
   147  143  148 1   
   148  144  145 2   
   149  144  152 1   
   150  146  149 1   
   151  146  150 1   
   152  146  151 1   
   153  152  153 1   
   154  152  161 1   
   155  153  154 1   
   156  153  156 1   
   157  153  162 1   
   158  154  155 2   
   159  154  167 1   
   160  156  157 1   
   161  156  163 1   
   162  156  164 1   
   163  157  158 1   
   164  157  165 1   
   165  157  166 1   
   166  158  159 1   
   167  158  160 1   
   168  167  168 1   
   169  167  172 1   
   170  168  169 1   
   171  168  170 1   
   172  168  171 1   
   173  174  175 1   
   174  174  176 1   
   175  177  178 1   
   176  177  179 1   
@<TRIPOS>SUBSTRUCTURE
     1 MOL         1 TEMP              0 ****  ****    0 ROOT
