@<TRIPOS>MOLECULE
MOL
  175   173     1     0     0
SMALL
resp


@<TRIPOS>ATOM
      1 C1          0.2970    3.9180    5.2660 c3        1 MOL     -0.377169
      2 C2         -0.4960    3.8800    3.9560 c         1 MOL      0.718979
      3 O1          0.0840    4.1950    2.9570 o         1 MOL     -0.530956
      4 H1         -0.0920    3.1620    5.9480 hc        1 MOL      0.090549
      5 H2          1.3480    3.7160    5.0610 hc        1 MOL      0.090549
      6 H3          0.1990    4.9030    5.7220 hc        1 MOL      0.090549
      7 N1         -1.8220    3.6020    3.9460 n         1 MOL     -0.701182
      8 C3         -2.5310    3.3830    2.7370 c3        1 MOL      0.190042
      9 C4         -2.8080    4.5670    1.9090 c         1 MOL      0.633888
     10 O2         -3.2970    5.6170    2.3750 o         1 MOL     -0.602025
     11 C5         -3.8050    2.6620    3.0530 c3        1 MOL     -0.294510
     12 C6         -4.4410    2.0880    1.8100 c         1 MOL      0.708319
     13 O3         -3.8000    1.6530    0.8490 o         1 MOL     -0.673068
     14 O4         -5.6870    2.1260    1.7210 o         1 MOL     -0.673068
     15 H4         -2.3080    3.3990    4.8180 hn        1 MOL      0.342497
     16 H5         -1.9500    2.6660    2.1510 h1        1 MOL      0.080867
     17 H6         -4.4980    3.2500    3.6650 hc        1 MOL      0.055014
     18 H7         -3.6400    1.7590    3.6230 hc        1 MOL      0.055014
     19 N2         -2.5850    4.4640    0.5850 n         1 MOL     -0.415837
     20 C7         -2.8190    5.5330   -0.3600 c3        1 MOL      0.217157
     21 C8         -3.8280    5.0460   -1.4640 c         1 MOL      0.424177
     22 O5         -4.1250    5.8800   -2.3280 o         1 MOL     -0.572970
     23 C9         -1.4820    5.7510   -1.0570 c3        1 MOL     -0.432753
     24 H8         -1.9940    3.6990    0.2990 hn        1 MOL      0.237758
     25 H9         -3.2670    6.4270    0.0770 h1        1 MOL      0.047143
     26 H10        -1.5370    6.4060   -1.9350 hc        1 MOL      0.117287
     27 H11        -0.7490    6.0180   -0.2930 hc        1 MOL      0.117287
     28 H12        -1.1150    4.8520   -1.5540 hc        1 MOL      0.117287
     29 N3         -4.1320    3.7670   -1.5860 n         1 MOL     -0.406530
     30 C10        -4.7800    3.1780   -2.8020 c3        1 MOL      0.253209
     31 C11        -6.0990    2.3900   -2.4560 c         1 MOL      0.334535
     32 O6         -6.7950    2.0560   -3.3870 o         1 MOL     -0.542497
     33 C12        -3.7770    2.2870   -3.6190 c3        1 MOL     -0.117397
     34 C13        -3.1140    1.1790   -2.7820 c         1 MOL      0.683177
     35 O7         -3.8310    0.6900   -1.8830 o         1 MOL     -0.708937
     36 O8         -1.9010    0.7960   -3.0120 o         1 MOL     -0.708937
     37 H13        -3.7130    3.1160   -0.9350 hn        1 MOL      0.279614
     38 H14        -5.1770    3.9420   -3.4690 h1        1 MOL      0.035225
     39 H15        -3.0630    2.9030   -4.1740 hc        1 MOL      0.022158
     40 H16        -4.4200    1.7980   -4.3510 hc        1 MOL      0.022158
     41 N4         -6.3670    2.0460   -1.1920 n         1 MOL     -0.068693
     42 C14        -7.4580    1.2390   -0.6970 c3        1 MOL     -0.333904
     43 C15        -7.3990   -0.2870   -0.8990 c         1 MOL      0.675359
     44 O9         -8.2750   -1.0940   -0.6450 o         1 MOL     -0.649729
     45 H17        -5.6070    2.2290   -0.5550 hn        1 MOL      0.067841
     46 H18        -8.3200    1.6720   -1.2160 h1        1 MOL      0.130520
     47 H19        -7.4760    1.5080    0.3510 h1        1 MOL      0.130520
     48 N5         -6.2340   -0.6960   -1.4080 n         1 MOL     -0.387074
     49 C16        -6.1110   -2.0680   -2.0020 c3        1 MOL      0.077641
     50 C17        -5.9230   -3.2050   -0.9340 c         1 MOL      0.400202
     51 O10        -5.7200   -4.3550   -1.2690 o         1 MOL     -0.523821
     52 C18        -5.0780   -1.9930   -3.1060 c3        1 MOL     -0.226224
     53 C19        -3.6290   -2.1880   -2.6690 c         1 MOL      0.510112
     54 N6         -2.6650   -2.2310   -3.5850 n         1 MOL     -0.525803
     55 O11        -3.3050   -2.2260   -1.4720 o         1 MOL     -0.554246
     56 H20        -5.5580    0.0270   -1.6270 hn        1 MOL      0.218779
     57 H21        -7.0530   -2.2870   -2.4980 h1        1 MOL      0.098187
     58 H22        -5.1220   -1.0320   -3.6110 hc        1 MOL      0.082379
     59 H23        -5.3660   -2.6920   -3.8920 hc        1 MOL      0.082379
     60 H24        -2.9730   -2.1220   -4.5390 hn        1 MOL      0.291520
     61 H25        -1.6880   -2.2680   -3.3590 hn        1 MOL      0.291520
     62 N7         -6.0270   -2.9620    0.3580 n         1 MOL     -0.180302
     63 C20        -5.8470   -3.9410    1.4460 c3        1 MOL     -0.231428
     64 C21        -4.4290   -4.5020    1.7380 c         1 MOL      0.577606
     65 O12        -4.4080   -5.3570    2.5930 o         1 MOL     -0.593584
     66 H26        -6.3980   -2.0660    0.6480 hn        1 MOL      0.254429
     67 H27        -6.6150   -4.6990    1.3580 h1        1 MOL      0.093545
     68 H28        -6.0450   -3.2680    2.2760 h1        1 MOL      0.093545
     69 N8         -3.3920   -4.0340    1.1110 n         1 MOL     -0.209080
     70 C22        -2.0800   -4.6670    1.2150 c3        1 MOL     -0.232352
     71 C23        -1.0380   -3.5800    1.4290 c         1 MOL      0.536698
     72 O13        -1.2030   -2.4900    0.9050 o         1 MOL     -0.432965
     73 C24        -1.6900   -5.4700   -0.0210 c3        1 MOL      0.569338
     74 C25        -2.5630   -6.7400   -0.0170 c3        1 MOL     -0.513116
     75 O14        -1.8300   -4.8320   -1.1960 oh        1 MOL     -0.551548
     76 H29        -3.6310   -3.3750    0.3790 hn        1 MOL      0.230483
     77 H30        -2.0400   -5.2750    2.1150 h1        1 MOL      0.092349
     78 H31        -0.6690   -5.8300    0.0560 h1        1 MOL     -0.053159
     79 H32        -1.5720   -3.9150   -1.0950 ho        1 MOL      0.306327
     80 H33        -2.7040   -7.1940    0.9610 hc        1 MOL      0.121125
     81 H34        -3.5640   -6.4860   -0.3650 hc        1 MOL      0.121125
     82 H35        -2.1820   -7.5060   -0.6840 hc        1 MOL      0.121125
     83 N9          0.0950   -3.8890    2.1050 n         1 MOL     -0.603616
     84 C26         1.3000   -2.9320    2.0510 c3        1 MOL      0.046440
     85 C27         2.0170   -3.0230    0.7150 c         1 MOL      0.470572
     86 O15         2.5680   -4.0800    0.3300 o         1 MOL     -0.593009
     87 C28         2.3050   -3.1340    3.2540 c3        1 MOL      0.185449
     88 C29         1.5890   -3.2070    4.6060 c3        1 MOL      0.103356
     89 C30         3.1870   -1.8790    3.2840 c3        1 MOL     -0.234224
     90 C31         2.5900   -3.1770    5.8170 c3        1 MOL     -0.141078
     91 H36         0.1070   -4.7610    2.6090 hn        1 MOL      0.312573
     92 H37         0.8870   -1.9350    2.1570 h1        1 MOL      0.048366
     93 H38         2.9680   -3.9700    3.0770 hc        1 MOL     -0.024809
     94 H39         1.0800   -4.1660    4.6780 hc        1 MOL     -0.032000
     95 H40         0.8410   -2.4200    4.7530 hc        1 MOL     -0.032000
     96 H41         4.0830   -2.0490    3.8910 hc        1 MOL      0.037331
     97 H42         3.5430   -1.6150    2.2910 hc        1 MOL      0.037331
     98 H43         2.6410   -1.0360    3.6920 hc        1 MOL      0.037331
     99 H44         2.1740   -3.5760    6.7460 hc        1 MOL      0.025752
    100 H45         3.4740   -3.7760    5.5920 hc        1 MOL      0.025752
    101 H46         2.9380   -2.1650    5.9890 hc        1 MOL      0.025752
    102 N10         1.9000   -1.9740   -0.0320 n         1 MOL     -0.096741
    103 C32         2.5770   -1.8740   -1.2920 c3        1 MOL     -0.022928
    104 C33         4.0160   -1.1620   -1.0120 c         1 MOL      0.468683
    105 O16         4.3840   -0.6490    0.0740 o         1 MOL     -0.390868
    106 C34         1.8220   -1.1460   -2.3430 c3        1 MOL     -0.297538
    107 C35         0.4590   -1.7160   -2.5310 c         1 MOL      0.810263
    108 O17        -0.4100   -1.4640   -1.6450 o         1 MOL     -0.689716
    109 O18         0.2220   -2.4010   -3.5680 o         1 MOL     -0.689716
    110 H47         1.4360   -1.1480    0.2980 hn        1 MOL      0.204799
    111 H48         2.8010   -2.8800   -1.6380 h1        1 MOL      0.087965
    112 H49         2.4560   -1.0870   -3.2280 hc        1 MOL      0.073166
    113 H50         1.6250   -0.1280   -2.0120 hc        1 MOL      0.073166
    114 N11         4.8860   -1.2330   -1.9760 n         1 MOL     -0.732116
    115 C36         6.3390   -0.8210   -1.7050 c3        1 MOL      0.489954
    116 C37         6.6220    0.6090   -1.4270 c         1 MOL      0.254406
    117 O19         7.4260    0.8820   -0.5310 o         1 MOL     -0.489771
    118 C38         7.2740   -1.4510   -2.7720 c3        1 MOL     -0.133157
    119 C39         8.7830   -1.4040   -2.4720 ca        1 MOL     -0.025127
    120 C40         9.2990   -2.4080   -1.6270 ca        1 MOL     -0.089444
    121 C41         9.6440   -0.3230   -2.7480 ca        1 MOL     -0.089444
    122 C42        10.6700   -2.4910   -1.2290 ca        1 MOL     -0.120191
    123 C43        10.9600   -0.3240   -2.3720 ca        1 MOL     -0.120191
    124 C44        11.5180   -1.3770   -1.6070 ca        1 MOL     -0.145946
    125 H51         4.6370   -1.8420   -2.7380 hn        1 MOL      0.375903
    126 H52         6.7330   -1.3110   -0.8180 h1        1 MOL      0.021314
    127 H53         7.0090   -1.1130   -3.7710 hc        1 MOL      0.040614
    128 H54         6.9680   -2.4870   -2.8280 hc        1 MOL      0.040614
    129 H55         8.5820   -3.0900   -1.1950 ha        1 MOL      0.096939
    130 H56         9.2220    0.5220   -3.2610 ha        1 MOL      0.096939
    131 H57        10.9770   -3.2550   -0.5210 ha        1 MOL      0.113307
    132 H58        11.5570    0.5490   -2.6100 ha        1 MOL      0.113307
    133 H59        12.4650   -1.2680   -1.1110 ha        1 MOL      0.122049
    134 N12         5.8140    1.5730   -1.9030 n         1 MOL     -0.029691
    135 C45         5.8150    2.9290   -1.3760 c3        1 MOL     -0.016566
    136 C46         5.3930    3.0730    0.1140 c         1 MOL      0.224011
    137 O20         5.6420    4.0510    0.8300 o         1 MOL     -0.504389
    138 C47         4.8390    3.6900   -2.2970 c3        1 MOL      0.051532
    139 C48         5.0520    3.0340   -3.6400 c3        1 MOL     -0.116248
    140 C49         5.0470    1.5230   -3.1090 c3        1 MOL     -0.017444
    141 H60         6.7680    3.4330   -1.5300 h1        1 MOL      0.069353
    142 H61         3.7960    3.5490   -2.0140 hc        1 MOL      0.025783
    143 H62         5.0110    4.7610   -2.3290 hc        1 MOL      0.025783
    144 H63         4.2250    3.1490   -4.3430 hc        1 MOL      0.044266
    145 H64         6.0250    3.2730   -4.0780 hc        1 MOL      0.044266
    146 H65         4.0320    1.2340   -2.8530 h1        1 MOL      0.040014
    147 H66         5.5010    0.8940   -3.8770 h1        1 MOL      0.040014
    148 N13         4.5510    2.1750    0.5340 n         1 MOL     -0.013791
    149 C50         3.9590    2.2660    1.8350 c3        1 MOL      0.014245
    150 C51         4.9260    1.5900    2.7880 c         1 MOL      0.427708
    151 O21         5.1430    2.0500    3.9180 o         1 MOL     -0.545698
    152 C52         2.5710    1.6520    1.8210 c3        1 MOL     -0.103579
    153 C53         1.6130    2.1980    0.7860 c3        1 MOL     -0.064796
    154 C54         0.2610    1.5310    0.7280 c         1 MOL      0.688690
    155 O22        -0.6760    2.0220    0.0430 o         1 MOL     -0.748394
    156 O23         0.1790    0.3500    1.1770 o         1 MOL     -0.748394
    157 H67         4.5010    1.3360   -0.0180 hn        1 MOL      0.128200
    158 H68         3.9110    3.2560    2.2830 h1        1 MOL      0.092487
    159 H69         2.1540    1.7590    2.8210 hc        1 MOL      0.036950
    160 H70         2.7090    0.6010    1.5670 hc        1 MOL      0.036950
    161 H71         2.1170    2.0900   -0.1760 hc        1 MOL      0.032325
    162 H72         1.4590    3.2770    0.8950 hc        1 MOL      0.032325
    163 N14         5.6790    0.5290    2.3410 n         1 MOL     -0.052549
    164 C55         6.6880    0.0050    3.1540 c3        1 MOL     -0.299660
    165 H73         7.2080   -0.7900    2.6190 h1        1 MOL      0.093379
    166 H74         7.3960    0.7930    3.4090 h1        1 MOL      0.093379
    167 H75         6.2480   -0.3980    4.0670 h1        1 MOL      0.093379
    168 H76         5.4460    0.0760    1.4690 hn        1 MOL      0.132622
    169 Ca1        -2.1750   -0.1430   -0.1810 Ca        1 MOL      1.723669
    170 O24        -3.7910   -1.2540    1.5680 oh        1 MOL     -0.878487
    171 H77        -4.5850   -0.9500    2.0010 ho        1 MOL      0.416712
    172 H78        -3.1380   -1.2940    2.2620 ho        1 MOL      0.416712
    173 O25        -1.6770   -0.2600    2.8740 oh        1 MOL     -0.878487
    174 H79        -0.8530    0.0270    2.4860 ho        1 MOL      0.416712
    175 H80        -1.5590   -0.1240    3.8200 ho        1 MOL      0.416712
@<TRIPOS>BOND
     1    1    2 1   
     2    1    4 1   
     3    1    5 1   
     4    1    6 1   
     5    2    3 2   
     6    2    7 1   
     7    7    8 1   
     8    7   15 1   
     9    8    9 1   
    10    8   11 1   
    11    8   16 1   
    12    9   10 2   
    13    9   19 1   
    14   11   12 1   
    15   11   17 1   
    16   11   18 1   
    17   12   13 1   
    18   12   14 1   
    19   19   20 1   
    20   19   24 1   
    21   20   21 1   
    22   20   23 1   
    23   20   25 1   
    24   21   22 2   
    25   21   29 1   
    26   23   26 1   
    27   23   27 1   
    28   23   28 1   
    29   29   30 1   
    30   29   37 1   
    31   30   31 1   
    32   30   33 1   
    33   30   38 1   
    34   31   32 2   
    35   31   41 1   
    36   33   34 1   
    37   33   39 1   
    38   33   40 1   
    39   34   35 1   
    40   34   36 1   
    41   41   42 1   
    42   41   45 1   
    43   42   43 1   
    44   42   46 1   
    45   42   47 1   
    46   43   44 2   
    47   43   48 1   
    48   48   49 1   
    49   48   56 1   
    50   49   50 1   
    51   49   52 1   
    52   49   57 1   
    53   50   51 2   
    54   50   62 1   
    55   52   53 1   
    56   52   58 1   
    57   52   59 1   
    58   53   54 1   
    59   53   55 2   
    60   54   60 1   
    61   54   61 1   
    62   62   63 1   
    63   62   66 1   
    64   63   64 1   
    65   63   67 1   
    66   63   68 1   
    67   64   65 2   
    68   64   69 1   
    69   69   70 1   
    70   69   76 1   
    71   70   71 1   
    72   70   73 1   
    73   70   77 1   
    74   71   72 2   
    75   71   83 1   
    76   73   74 1   
    77   73   75 1   
    78   73   78 1   
    79   74   80 1   
    80   74   81 1   
    81   74   82 1   
    82   75   79 1   
    83   83   84 1   
    84   83   91 1   
    85   84   85 1   
    86   84   87 1   
    87   84   92 1   
    88   85   86 2   
    89   85  102 1   
    90   87   88 1   
    91   87   89 1   
    92   87   93 1   
    93   88   90 1   
    94   88   94 1   
    95   88   95 1   
    96   89   96 1   
    97   89   97 1   
    98   89   98 1   
    99   90   99 1   
   100   90  100 1   
   101   90  101 1   
   102  102  103 1   
   103  102  110 1   
   104  103  104 1   
   105  103  106 1   
   106  103  111 1   
   107  104  105 2   
   108  104  114 1   
   109  106  107 1   
   110  106  112 1   
   111  106  113 1   
   112  107  108 1   
   113  107  109 1   
   114  114  115 1   
   115  114  125 1   
   116  115  116 1   
   117  115  118 1   
   118  115  126 1   
   119  116  117 2   
   120  116  134 1   
   121  118  119 1   
   122  118  127 1   
   123  118  128 1   
   124  119  120 ar  
   125  119  121 ar  
   126  120  122 ar  
   127  120  129 1   
   128  121  123 ar  
   129  121  130 1   
   130  122  124 ar  
   131  122  131 1   
   132  123  124 ar  
   133  123  132 1   
   134  124  133 1   
   135  134  135 1   
   136  134  140 1   
   137  135  136 1   
   138  135  138 1   
   139  135  141 1   
   140  136  137 2   
   141  136  148 1   
   142  138  139 1   
   143  138  142 1   
   144  138  143 1   
   145  139  140 1   
   146  139  144 1   
   147  139  145 1   
   148  140  146 1   
   149  140  147 1   
   150  148  149 1   
   151  148  157 1   
   152  149  150 1   
   153  149  152 1   
   154  149  158 1   
   155  150  151 2   
   156  150  163 1   
   157  152  153 1   
   158  152  159 1   
   159  152  160 1   
   160  153  154 1   
   161  153  161 1   
   162  153  162 1   
   163  154  155 1   
   164  154  156 1   
   165  163  164 1   
   166  163  168 1   
   167  164  165 1   
   168  164  166 1   
   169  164  167 1   
   170  170  171 1   
   171  170  172 1   
   172  173  174 1   
   173  173  175 1   
@<TRIPOS>SUBSTRUCTURE
     1 MOL         1 TEMP              0 ****  ****    0 ROOT
