@<TRIPOS>MOLECULE
MOL
  186   183     1     0     0
SMALL
resp


@<TRIPOS>ATOM
      1 C1         -0.6080   -2.7350   -6.0660 c3        1 MOL     -0.360522
      2 C2         -0.9790   -2.5850   -4.5890 c         1 MOL      0.704014
      3 O1         -0.2760   -3.1850   -3.7590 o         1 MOL     -0.523305
      4 H1          0.4740   -2.8260   -6.1610 hc        1 MOL      0.087442
      5 H2         -1.0840   -3.6280   -6.4730 hc        1 MOL      0.087442
      6 H3         -0.9470   -1.8590   -6.6180 hc        1 MOL      0.087442
      7 N1         -2.1460   -2.0410   -4.2390 n         1 MOL     -0.595568
      8 C3         -2.6850   -1.9020   -2.9180 c3        1 MOL      0.237774
      9 C4         -3.1110   -3.3160   -2.4920 c         1 MOL      0.457729
     10 O2         -3.9060   -4.0060   -3.1400 o         1 MOL     -0.604644
     11 C5         -3.9190   -0.9080   -2.8670 c3        1 MOL     -0.263121
     12 C6         -4.5760   -0.6950   -1.5300 c         1 MOL      0.797881
     13 O3         -5.6760   -0.0570   -1.4820 o         1 MOL     -0.714261
     14 O4         -4.0610   -1.1960   -0.5250 o         1 MOL     -0.714261
     15 H4         -2.7410   -1.6830   -4.9780 hn        1 MOL      0.301788
     16 H5         -1.9190   -1.4760   -2.2800 h1        1 MOL      0.007134
     17 H6         -4.7620   -1.3440   -3.4030 hc        1 MOL      0.063119
     18 H7         -3.7860    0.0510   -3.3770 hc        1 MOL      0.063119
     19 N2         -2.7620   -3.8210   -1.3340 n         1 MOL     -0.120625
     20 C7         -3.0710   -5.1200   -0.6590 c3        1 MOL     -0.087586
     21 C8         -4.1330   -5.0040    0.5220 c         1 MOL      0.599268
     22 O5         -4.8010   -6.0170    0.7370 o         1 MOL     -0.584514
     23 C9         -1.6670   -5.7740   -0.3790 c3        1 MOL      0.218293
     24 C10        -0.9270   -6.2040   -1.6890 c3        1 MOL      0.173682
     25 C11        -1.8180   -6.9500    0.5890 c3        1 MOL     -0.271775
     26 C12         0.5690   -6.6410   -1.5390 c3        1 MOL     -0.117078
     27 H8         -2.0400   -3.2800   -0.8620 hn        1 MOL      0.072275
     28 H9         -3.4390   -5.8420   -1.3820 h1        1 MOL      0.052535
     29 H10        -1.0630   -4.9930    0.0960 hc        1 MOL     -0.000158
     30 H11        -0.9090   -5.4490   -2.4760 hc        1 MOL     -0.045080
     31 H12        -1.4420   -7.0800   -2.0670 hc        1 MOL     -0.045080
     32 H13        -0.7990   -7.2750    0.8050 hc        1 MOL      0.045247
     33 H14        -2.1760   -6.6660    1.5740 hc        1 MOL      0.045247
     34 H15        -2.2370   -7.8570    0.1400 hc        1 MOL      0.045247
     35 H16         1.0900   -6.6800   -2.5070 hc        1 MOL      0.013934
     36 H17         1.0630   -5.9110   -0.9010 hc        1 MOL      0.013934
     37 H18         0.6100   -7.6320   -1.0930 hc        1 MOL      0.013934
     38 N3         -4.4130   -3.8180    1.0950 n         1 MOL     -0.572709
     39 C13        -5.2150   -3.6770    2.3200 c3        1 MOL      0.275687
     40 C14        -6.4870   -2.9020    1.9320 c         1 MOL      0.380104
     41 O6         -7.4590   -3.0090    2.6950 o         1 MOL     -0.559894
     42 C15        -4.5430   -3.0430    3.6160 c3        1 MOL     -0.250985
     43 C16        -3.9700   -1.6480    3.5610 c         1 MOL      0.678510
     44 O7         -3.6980   -1.0620    4.6710 o         1 MOL     -0.708997
     45 O8         -3.9030   -1.0380    2.5410 o         1 MOL     -0.708997
     46 H19        -3.8800   -3.0350    0.7620 hn        1 MOL      0.358277
     47 H20        -5.5970   -4.6580    2.6040 h1        1 MOL      0.031419
     48 H21        -3.7800   -3.7670    3.9120 hc        1 MOL      0.059398
     49 H22        -5.3140   -3.1520    4.3830 hc        1 MOL      0.059398
     50 N4         -6.4970   -2.2610    0.7210 n         1 MOL     -0.179917
     51 C17        -7.6340   -1.4900    0.2030 c3        1 MOL     -0.384609
     52 C18        -7.7940   -0.0750    0.8340 c         1 MOL      0.673590
     53 O9         -8.9120    0.4250    0.6090 o         1 MOL     -0.610874
     54 H23        -5.7030   -2.4260    0.1250 hn        1 MOL      0.211475
     55 H24        -8.4580   -2.0870    0.5920 h1        1 MOL      0.152569
     56 H25        -7.5370   -1.5050   -0.8870 h1        1 MOL      0.152569
     57 N5         -6.7920    0.5590    1.4760 n         1 MOL     -0.533768
     58 C19        -6.8060    1.9890    1.8930 c3        1 MOL      0.121452
     59 C20        -6.8720    3.1010    0.7490 c         1 MOL      0.346249
     60 O10        -7.1820    4.2670    1.0010 o         1 MOL     -0.543429
     61 C21        -5.7710    2.3380    2.8950 c3        1 MOL     -0.349279
     62 C22        -4.3800    2.1430    2.3290 c         1 MOL      0.872708
     63 O11        -3.3440    2.2230    3.0020 o         1 MOL     -0.765554
     64 O12        -4.1380    1.9180    1.0870 o         1 MOL     -0.765554
     65 H26        -6.0060   -0.0310    1.7070 hn        1 MOL      0.406492
     66 H27        -7.7180    2.1320    2.4720 h1        1 MOL      0.062865
     67 H28        -5.7850    1.7780    3.8300 hc        1 MOL      0.102035
     68 H29        -5.7240    3.3960    3.1420 hc        1 MOL      0.102035
     69 N6         -6.5580    2.6420   -0.4540 n         1 MOL     -0.063019
     70 C23        -6.6070    3.5880   -1.6300 c3        1 MOL     -0.280628
     71 C24        -5.2480    4.3540   -1.8120 c         1 MOL      0.554586
     72 O13        -5.1420    5.2300   -2.6980 o         1 MOL     -0.587965
     73 H30        -6.3500    1.6660   -0.5890 hn        1 MOL      0.214914
     74 H31        -7.3750    4.3320   -1.4030 h1        1 MOL      0.121023
     75 H32        -6.8610    3.0130   -2.5310 h1        1 MOL      0.121023
     76 N7         -4.1930    3.9010   -1.0830 n         1 MOL     -0.338999
     77 C25        -2.7650    4.2680   -1.3420 c3        1 MOL      0.054216
     78 C26        -1.9010    3.0530   -1.4520 c         1 MOL      0.706610
     79 O14        -2.1780    2.0280   -0.8500 o         1 MOL     -0.702459
     80 C27        -2.2360    5.1480   -0.2200 c3        1 MOL     -0.084385
     81 C28        -2.9550    6.5070   -0.2420 c3        1 MOL     -0.176471
     82 C29        -2.0580    7.5740    0.3990 c         1 MOL      0.645769
     83 N8         -2.0660    7.6420    1.6930 n         1 MOL     -0.799838
     84 O15        -1.6380    8.5290   -0.2530 o         1 MOL     -0.587536
     85 H33        -4.3700    3.1600   -0.4150 hn        1 MOL      0.238934
     86 H34        -2.6790    4.7740   -2.2980 h1        1 MOL      0.058151
     87 H35        -1.1860    5.3540   -0.4360 hc        1 MOL      0.061076
     88 H36        -2.3410    4.6680    0.7550 hc        1 MOL      0.061076
     89 H37        -3.9100    6.3820    0.2490 hc        1 MOL      0.073152
     90 H38        -3.0890    6.8120   -1.2850 hc        1 MOL      0.073152
     91 H39        -2.4220    6.8860    2.2570 hn        1 MOL      0.362268
     92 H40        -1.6580    8.4640    2.1130 hn        1 MOL      0.362268
     93 N9         -0.8450    3.2320   -2.2840 n         1 MOL     -0.672287
     94 C30         0.2780    2.3330   -2.2110 c3        1 MOL      0.202300
     95 C31         1.2820    2.7860   -1.1620 c         1 MOL      0.314346
     96 O16         1.7200    4.0060   -1.2430 o         1 MOL     -0.570305
     97 C32         0.8250    2.1370   -3.5760 c3        1 MOL      0.303016
     98 C33         2.0250    1.2290   -3.7180 c3        1 MOL     -0.176569
     99 C34        -0.2420    1.5770   -4.5380 c3        1 MOL     -0.176569
    100 H41        -0.6400    4.1730   -2.6050 hn        1 MOL      0.311197
    101 H42        -0.0860    1.3590   -1.8800 h1        1 MOL      0.121541
    102 H43         1.2950    3.0680   -3.8930 hc        1 MOL     -0.064465
    103 H44         2.8770    1.6130   -3.1500 hc        1 MOL      0.015231
    104 H45         1.7410    0.2710   -3.2840 hc        1 MOL      0.015231
    105 H46         2.2740    1.2360   -4.7770 hc        1 MOL      0.015231
    106 H47         0.2610    1.4790   -5.4990 hc        1 MOL      0.015231
    107 H48        -0.7380    0.6450   -4.2570 hc        1 MOL      0.015231
    108 H49        -0.9810    2.3490   -4.7800 hc        1 MOL      0.015231
    109 N10         1.7170    1.9380   -0.2340 n         1 MOL     -0.195294
    110 C35         2.8570    2.0400    0.6540 c3        1 MOL     -0.015811
    111 C36         4.1110    1.7010   -0.1470 c         1 MOL      0.282993
    112 O17         4.0890    0.8370   -1.0460 o         1 MOL     -0.235384
    113 C37         2.5890    1.1140    1.8620 c3        1 MOL     -0.195609
    114 C38         3.4510    1.4920    3.1280 c         1 MOL      0.700972
    115 N11         3.1270    0.8880    4.2810 n         1 MOL     -0.824175
    116 O18         4.4550    2.1460    3.1300 o         1 MOL     -0.546623
    117 H50         1.2560    1.0360   -0.2540 hn        1 MOL      0.455797
    118 H51         2.9270    3.0130    1.1190 h1        1 MOL      0.084483
    119 H52         2.7090    0.0480    1.6580 hc        1 MOL      0.034297
    120 H53         1.5420    1.1430    2.1500 hc        1 MOL      0.034297
    121 H54         2.4120    0.1760    4.1740 hn        1 MOL      0.387724
    122 H55         3.7210    0.9080    5.0990 hn        1 MOL      0.387724
    123 N12         5.2680    2.1500    0.2940 n         1 MOL     -0.305480
    124 C39         6.5390    1.6670   -0.2790 c3        1 MOL      0.044878
    125 C40         6.7020    0.1530   -0.0760 c         1 MOL      0.664773
    126 O19         7.1460   -0.5380   -0.9550 o         1 MOL     -0.543924
    127 C41         7.6380    2.4460    0.5190 c3        1 MOL     -0.100029
    128 C42         9.0740    2.0700    0.1350 ca        1 MOL      0.035934
    129 C43         9.6050    2.6450   -1.0500 ca        1 MOL     -0.196172
    130 C44         9.8410    1.1910    0.9390 ca        1 MOL     -0.196172
    131 C45        10.9970    2.4200   -1.3020 ca        1 MOL     -0.175875
    132 C46        11.1520    0.9160    0.6080 ca        1 MOL     -0.175875
    133 C47        11.7930    1.5770   -0.4420 ca        1 MOL      0.249126
    134 O20        13.1390    1.4070   -0.7220 oh        1 MOL     -0.512224
    135 H56         5.3390    2.7780    1.0910 hn        1 MOL      0.231011
    136 H57         6.6080    1.9290   -1.3300 h1        1 MOL      0.068725
    137 H58         7.4120    2.2220    1.5520 hc        1 MOL      0.047843
    138 H59         7.5770    3.5050    0.2490 hc        1 MOL      0.047843
    139 H60         9.0140    3.3090   -1.6590 ha        1 MOL      0.154218
    140 H61         9.4760    0.6430    1.7990 ha        1 MOL      0.154218
    141 H62        11.4950    2.8180   -2.1650 ha        1 MOL      0.123598
    142 H63        11.7040    0.2510    1.2480 ha        1 MOL      0.123598
    143 H64        13.5470    0.9070   -0.0160 ho        1 MOL      0.373784
    144 N13         6.3840   -0.3620    1.0980 n         1 MOL     -0.428677
    145 C48         6.1920   -1.8190    1.2730 c3        1 MOL     -0.039330
    146 C49         5.2670   -2.6010    0.3130 c         1 MOL      0.418235
    147 O21         5.4290   -3.7800    0.0750 o         1 MOL     -0.521176
    148 C50         5.8080   -2.0880    2.7290 c3        1 MOL      0.095314
    149 C51         6.9500   -1.7780    3.6740 c3        1 MOL     -0.361436
    150 C52         6.4640   -2.3880    5.0030 c         1 MOL      0.757180
    151 O22         6.7730   -3.5760    5.3740 o         1 MOL     -0.739936
    152 O23         5.7630   -1.7650    5.8080 o         1 MOL     -0.739936
    153 H65         6.0730    0.2680    1.8260 hn        1 MOL      0.302500
    154 H66         7.1680   -2.3040    1.1350 h1        1 MOL      0.100998
    155 H67         5.6840   -3.1770    2.7730 hc        1 MOL      0.010967
    156 H68         4.8660   -1.5800    2.9250 hc        1 MOL      0.010967
    157 H69         7.0690   -0.7110    3.8670 hc        1 MOL      0.051583
    158 H70         7.8880   -2.2460    3.3610 hc        1 MOL      0.051583
    159 N14         4.2920   -1.8960   -0.3530 n         1 MOL     -0.028065
    160 C53         3.4130   -2.5160   -1.3510 c3        1 MOL     -0.169046
    161 C54         4.0420   -2.3070   -2.7040 c         1 MOL      0.607376
    162 O24         3.9580   -3.2470   -3.4680 o         1 MOL     -0.595960
    163 C55         1.9850   -1.9480   -1.2460 c3        1 MOL      0.361329
    164 C56         1.2100   -2.3000    0.0230 c3        1 MOL     -0.130201
    165 C57        -0.0190   -1.5160    0.1700 c         1 MOL      0.916962
    166 O25        -1.0880   -2.0730    0.5590 o         1 MOL     -0.865008
    167 O26        -0.0590   -0.2980   -0.1040 o         1 MOL     -0.865008
    168 H71         4.4360   -0.9020   -0.3290 hn        1 MOL     -0.146255
    169 H72         3.3380   -3.5730   -1.0970 h1        1 MOL      0.113841
    170 H73         1.4150   -2.3260   -2.1050 hc        1 MOL     -0.110931
    171 H74         2.0040   -0.8730   -1.4130 hc        1 MOL     -0.110931
    172 H75         1.7550   -2.0090    0.9220 hc        1 MOL     -0.012975
    173 H76         1.0020   -3.3660   -0.0650 hc        1 MOL     -0.012975
    174 N15         4.4950   -1.0920   -3.0170 n         1 MOL     -0.110932
    175 C58         5.3250   -0.6480   -4.1730 c3        1 MOL     -0.396513
    176 H77         6.2580   -1.2120   -4.1890 h1        1 MOL      0.135139
    177 H78         4.7800   -0.8220   -5.1010 h1        1 MOL      0.135139
    178 H79         5.5460    0.4150   -4.0750 h1        1 MOL      0.135139
    179 H80         4.4880   -0.4380   -2.2530 hn        1 MOL      0.045046
    180 Ca1        -2.3560    0.1700    1.0010 Ca        1 MOL      1.721520
    181 O27        -1.0900    0.1420    3.3970 oh        1 MOL     -0.884723
    182 H81        -1.7980    0.0710    4.0340 ho        1 MOL      0.422763
    183 H82        -0.4900   -0.5700    3.6210 ho        1 MOL      0.422763
    184 O28        -0.9220    2.2490    1.7400 oh        1 MOL     -0.884723
    185 H83        -0.6320    1.6320    2.4130 ho        1 MOL      0.422763
    186 H84        -1.6190    2.7520    2.1480 ho        1 MOL      0.422763
@<TRIPOS>BOND
     1    1    2 1   
     2    1    4 1   
     3    1    5 1   
     4    1    6 1   
     5    2    3 2   
     6    2    7 1   
     7    7    8 1   
     8    7   15 1   
     9    8    9 1   
    10    8   11 1   
    11    8   16 1   
    12    9   10 2   
    13    9   19 1   
    14   11   12 1   
    15   11   17 1   
    16   11   18 1   
    17   12   13 1   
    18   12   14 1   
    19   19   20 1   
    20   19   27 1   
    21   20   21 1   
    22   20   23 1   
    23   20   28 1   
    24   21   22 2   
    25   21   38 1   
    26   23   24 1   
    27   23   25 1   
    28   23   29 1   
    29   24   26 1   
    30   24   30 1   
    31   24   31 1   
    32   25   32 1   
    33   25   33 1   
    34   25   34 1   
    35   26   35 1   
    36   26   36 1   
    37   26   37 1   
    38   38   39 1   
    39   38   46 1   
    40   39   40 1   
    41   39   42 1   
    42   39   47 1   
    43   40   41 2   
    44   40   50 1   
    45   42   43 1   
    46   42   48 1   
    47   42   49 1   
    48   43   44 1   
    49   43   45 1   
    50   50   51 1   
    51   50   54 1   
    52   51   52 1   
    53   51   55 1   
    54   51   56 1   
    55   52   53 2   
    56   52   57 1   
    57   57   58 1   
    58   57   65 1   
    59   58   59 1   
    60   58   61 1   
    61   58   66 1   
    62   59   60 2   
    63   59   69 1   
    64   61   62 1   
    65   61   67 1   
    66   61   68 1   
    67   62   63 1   
    68   62   64 1   
    69   69   70 1   
    70   69   73 1   
    71   70   71 1   
    72   70   74 1   
    73   70   75 1   
    74   71   72 2   
    75   71   76 1   
    76   76   77 1   
    77   76   85 1   
    78   77   78 1   
    79   77   80 1   
    80   77   86 1   
    81   78   79 2   
    82   78   93 1   
    83   80   81 1   
    84   80   87 1   
    85   80   88 1   
    86   81   82 1   
    87   81   89 1   
    88   81   90 1   
    89   82   83 1   
    90   82   84 2   
    91   83   91 1   
    92   83   92 1   
    93   93   94 1   
    94   93  100 1   
    95   94   95 1   
    96   94   97 1   
    97   94  101 1   
    98   95   96 2   
    99   95  109 1   
   100   97   98 1   
   101   97   99 1   
   102   97  102 1   
   103   98  103 1   
   104   98  104 1   
   105   98  105 1   
   106   99  106 1   
   107   99  107 1   
   108   99  108 1   
   109  109  110 1   
   110  109  117 1   
   111  110  111 1   
   112  110  113 1   
   113  110  118 1   
   114  111  112 2   
   115  111  123 1   
   116  113  114 1   
   117  113  119 1   
   118  113  120 1   
   119  114  115 1   
   120  114  116 2   
   121  115  121 1   
   122  115  122 1   
   123  123  124 1   
   124  123  135 1   
   125  124  125 1   
   126  124  127 1   
   127  124  136 1   
   128  125  126 2   
   129  125  144 1   
   130  127  128 1   
   131  127  137 1   
   132  127  138 1   
   133  128  129 ar  
   134  128  130 ar  
   135  129  131 ar  
   136  129  139 1   
   137  130  132 ar  
   138  130  140 1   
   139  131  133 ar  
   140  131  141 1   
   141  132  133 ar  
   142  132  142 1   
   143  133  134 1   
   144  134  143 1   
   145  144  145 1   
   146  144  153 1   
   147  145  146 1   
   148  145  148 1   
   149  145  154 1   
   150  146  147 2   
   151  146  159 1   
   152  148  149 1   
   153  148  155 1   
   154  148  156 1   
   155  149  150 1   
   156  149  157 1   
   157  149  158 1   
   158  150  151 1   
   159  150  152 1   
   160  159  160 1   
   161  159  168 1   
   162  160  161 1   
   163  160  163 1   
   164  160  169 1   
   165  161  162 2   
   166  161  174 1   
   167  163  164 1   
   168  163  170 1   
   169  163  171 1   
   170  164  165 1   
   171  164  172 1   
   172  164  173 1   
   173  165  166 1   
   174  165  167 1   
   175  174  175 1   
   176  174  179 1   
   177  175  176 1   
   178  175  177 1   
   179  175  178 1   
   180  181  182 1   
   181  181  183 1   
   182  184  185 1   
   183  184  186 1   
@<TRIPOS>SUBSTRUCTURE
     1 MOL         1 TEMP              0 ****  ****    0 ROOT
