@<TRIPOS>MOLECULE
MOL
  176   174     1     0     0
SMALL
resp


@<TRIPOS>ATOM
      1 C1          0.4940    3.7410    6.2010 c3        1 MOL     -0.380840
      2 C2          0.3810    3.1450    4.7510 c         1 MOL      0.690791
      3 O1          1.3810    3.1270    4.0360 o         1 MOL     -0.549061
      4 H1          0.8410    4.7730    6.1430 hc        1 MOL      0.099185
      5 H2         -0.4830    3.7140    6.6830 hc        1 MOL      0.099185
      6 H3          1.2040    3.1520    6.7830 hc        1 MOL      0.099185
      7 N1         -0.8190    2.8580    4.3110 n         1 MOL     -0.562181
      8 C3         -1.2240    2.6520    2.9280 c3        1 MOL      0.147712
      9 C4         -1.4500    3.9200    2.1130 c         1 MOL      0.677437
     10 O2         -1.8050    4.9340    2.7600 o         1 MOL     -0.597413
     11 C5         -2.4040    1.7270    2.9560 c3        1 MOL     -0.094328
     12 C6         -2.7290    0.9990    1.6540 c         1 MOL      0.718353
     13 O3         -2.7620    1.6540    0.5950 o         1 MOL     -0.754610
     14 O4         -3.0680   -0.2200    1.5420 o         1 MOL     -0.754610
     15 H4         -1.6270    3.0470    4.8830 hn        1 MOL      0.300818
     16 H5         -0.4110    2.1590    2.3900 h1        1 MOL     -0.002020
     17 H6         -3.2300    2.3760    3.2550 hc        1 MOL      0.018611
     18 H7         -2.3530    0.9520    3.7250 hc        1 MOL      0.018611
     19 N2         -1.1620    3.9460    0.8320 n         1 MOL     -0.585066
     20 C7         -1.2830    5.0790   -0.0950 c3        1 MOL      0.087979
     21 C8         -2.4280    5.1000   -1.1180 c         1 MOL      0.459607
     22 O5         -2.4510    5.9950   -2.0060 o         1 MOL     -0.563366
     23 C9          0.1290    5.5580   -0.6260 c3        1 MOL     -0.024050
     24 C10         0.5820    4.8670   -1.9510 c3        1 MOL     -0.147775
     25 C11         2.0300    5.3450   -2.1720 c3        1 MOL     -0.058435
     26 C12         2.6810    4.5640   -3.4110 c3        1 MOL      0.024111
     27 N3          2.0070    4.7510   -4.7740 n4        1 MOL     -0.262499
     28 H8         -0.9370    3.0270    0.4660 hn        1 MOL      0.367613
     29 H9         -1.4910    5.9100    0.5690 h1        1 MOL      0.079465
     30 H10         0.9390    5.3430    0.0690 hc        1 MOL      0.050540
     31 H11         0.1140    6.6320   -0.8050 hc        1 MOL      0.050540
     32 H12        -0.1440    5.2390   -2.6850 hc        1 MOL      0.044831
     33 H13         0.4370    3.7860   -1.9300 hc        1 MOL      0.044831
     34 H14         2.7640    5.2680   -1.3690 hc        1 MOL      0.068892
     35 H15         2.0120    6.3780   -2.5230 hc        1 MOL      0.068892
     36 H16         2.6820    3.5050   -3.1540 hx        1 MOL      0.076837
     37 H17         3.6790    4.9380   -3.6350 hx        1 MOL      0.076837
     38 H18         1.7240    5.6970   -4.9950 hn        1 MOL      0.295447
     39 H19         2.5600    4.4430   -5.5590 hn        1 MOL      0.295447
     40 H20         1.1660    4.1930   -4.8150 hn        1 MOL      0.295447
     41 N4         -3.2840    4.1110   -1.0050 n         1 MOL     -0.298659
     42 C13        -4.5300    3.9960   -1.7180 c3        1 MOL      0.022429
     43 C14        -5.6300    3.4730   -0.8710 c         1 MOL      0.493219
     44 O6         -6.7950    3.7060   -1.1700 o         1 MOL     -0.540375
     45 C15        -4.2820    3.1040   -2.8920 c3        1 MOL     -0.160241
     46 C16        -3.5480    1.8740   -2.5500 c         1 MOL      0.782697
     47 O7         -4.0580    1.1200   -1.7640 o         1 MOL     -0.785859
     48 O8         -2.5020    1.4260   -3.0900 o         1 MOL     -0.785859
     49 H21        -3.0290    3.4040   -0.3340 hn        1 MOL      0.186086
     50 H22        -4.8720    4.9660   -2.0720 h1        1 MOL      0.114699
     51 H23        -3.6660    3.6730   -3.5870 hc        1 MOL      0.046708
     52 H24        -5.2420    2.9250   -3.3740 hc        1 MOL      0.046708
     53 N5         -5.2640    2.8860    0.3130 n         1 MOL     -0.319742
     54 C17        -6.2080    2.3860    1.3380 c3        1 MOL     -0.199021
     55 C18        -6.6820    0.9430    0.8830 c         1 MOL      0.583362
     56 O9         -7.4870    0.3990    1.6580 o         1 MOL     -0.597180
     57 H25        -4.3150    2.5760    0.4450 hn        1 MOL      0.206801
     58 H26        -7.1190    2.9790    1.2700 h1        1 MOL      0.134802
     59 H27        -5.7720    2.3550    2.3340 h1        1 MOL      0.134802
     60 N6         -6.1550    0.2390   -0.1860 n         1 MOL     -0.466982
     61 C19        -6.6900   -1.0390   -0.6440 c3        1 MOL      0.092869
     62 C20        -6.3400   -2.2680    0.3130 c         1 MOL      0.253058
     63 O10        -6.4380   -3.4420   -0.0630 o         1 MOL     -0.445517
     64 C21        -6.2240   -1.3130   -2.1030 c3        1 MOL     -0.440029
     65 C22        -4.7970   -1.7610   -2.2850 c         1 MOL      0.841732
     66 N7         -4.4220   -2.0430   -3.4960 n         1 MOL     -0.659395
     67 O11        -3.9680   -1.6410   -1.4080 o         1 MOL     -0.657201
     68 H28        -5.4460    0.6800   -0.7530 hn        1 MOL      0.389997
     69 H29        -7.7780   -1.0370   -0.6020 h1        1 MOL      0.110083
     70 H30        -6.3870   -0.3940   -2.6800 hc        1 MOL      0.132834
     71 H31        -6.8410   -2.1080   -2.5100 hc        1 MOL      0.132834
     72 H32        -5.2410   -2.0890   -4.0890 hn        1 MOL      0.303352
     73 H33        -3.5460   -2.5130   -3.6890 hn        1 MOL      0.303352
     74 N8         -5.7620   -1.9810    1.4700 n         1 MOL     -0.022564
     75 C23        -5.5760   -2.9310    2.5790 c3        1 MOL     -0.257670
     76 C24        -4.2460   -3.5930    2.6880 c         1 MOL      0.678821
     77 O12        -4.0960   -4.5500    3.4550 o         1 MOL     -0.597880
     78 H34        -5.6980   -1.0130    1.7520 hn        1 MOL      0.258011
     79 H35        -6.2760   -3.7580    2.5640 h1        1 MOL      0.108161
     80 H36        -5.7110   -2.4110    3.5330 h1        1 MOL      0.108161
     81 N9         -3.2350   -3.1990    1.8980 n         1 MOL     -0.471268
     82 C25        -1.9260   -3.8290    1.7600 c3        1 MOL      0.144138
     83 C26        -0.7640   -2.9280    1.2020 c         1 MOL      0.300547
     84 O13        -0.9500   -2.2460    0.1790 o         1 MOL     -0.529402
     85 C27        -2.0460   -5.1610    0.9260 c3        1 MOL     -0.028740
     86 C28        -2.4100   -5.1080   -0.5240 ca        1 MOL     -0.021898
     87 C29        -1.3260   -5.3170   -1.4960 ca        1 MOL     -0.036473
     88 C30        -3.7180   -5.0350   -0.9060 ca        1 MOL     -0.036473
     89 C31        -1.5830   -5.2850   -2.8380 ca        1 MOL     -0.388104
     90 C32        -4.0310   -5.0730   -2.2550 ca        1 MOL     -0.388104
     91 C33        -2.9900   -5.1940   -3.2360 ca        1 MOL      0.421093
     92 O14        -3.2880   -5.2310   -4.5930 oh        1 MOL     -0.497887
     93 H37        -3.4480   -2.4290    1.2850 hn        1 MOL      0.259635
     94 H38        -1.5810   -4.1180    2.7440 h1        1 MOL      0.045043
     95 H39        -2.6210   -5.9230    1.4590 hc        1 MOL      0.030250
     96 H40        -1.0110   -5.4840    1.0220 hc        1 MOL      0.030250
     97 H41        -0.2960   -5.4060   -1.1710 ha        1 MOL      0.120781
     98 H42        -4.4870   -4.8570   -0.1650 ha        1 MOL      0.120781
     99 H43        -0.7490   -5.3540   -3.5190 ha        1 MOL      0.166439
    100 H44        -5.0740   -5.1330   -2.5300 ha        1 MOL      0.166439
    101 H45        -2.4750   -5.4380   -5.0530 ho        1 MOL      0.343334
    102 N10         0.4240   -3.0500    1.8180 n         1 MOL     -0.128007
    103 C34         1.7310   -2.4610    1.5010 c3        1 MOL     -0.031332
    104 C35         2.8230   -3.4150    1.0170 c         1 MOL      0.364552
    105 O15         2.8270   -4.6420    1.3680 o         1 MOL     -0.540485
    106 C36         2.2300   -1.5350    2.6670 c3        1 MOL      0.066169
    107 C37         2.3950   -2.4240    3.9540 c3        1 MOL      0.076367
    108 C38         1.1890   -0.4880    2.9970 c3        1 MOL     -0.105301
    109 C39         3.2670   -1.7820    5.0130 c3        1 MOL     -0.110296
    110 H46         0.5960   -3.7350    2.5350 hn        1 MOL      0.200681
    111 H47         1.5940   -1.9070    0.5690 h1        1 MOL      0.106125
    112 H48         3.1830   -1.0590    2.4350 hc        1 MOL      0.000077
    113 H49         2.9900   -3.2890    3.6690 hc        1 MOL     -0.002405
    114 H50         1.4400   -2.7970    4.3060 hc        1 MOL     -0.002405
    115 H51         0.3180   -0.9180    3.4960 hc        1 MOL      0.027486
    116 H52         1.6220    0.1980    3.7190 hc        1 MOL      0.027486
    117 H53         0.8190    0.1250    2.1770 hc        1 MOL      0.027486
    118 H54         2.8770   -0.7660    5.1380 hc        1 MOL      0.023871
    119 H55         3.1420   -2.3580    5.9330 hc        1 MOL      0.023871
    120 H56         4.3070   -1.6990    4.6890 hc        1 MOL      0.023871
    121 N11         3.7830   -2.8310    0.3680 n         1 MOL     -0.099010
    122 C40         5.0230   -3.4310   -0.1980 c3        1 MOL      0.043845
    123 C41         6.1930   -2.5560    0.2600 c         1 MOL      0.445936
    124 O16         5.9160   -1.5200    0.8590 o         1 MOL     -0.399417
    125 C42         4.8470   -3.5590   -1.7060 c3        1 MOL     -0.045437
    126 O17         4.9250   -2.2530   -2.2980 oh        1 MOL     -0.474508
    127 H57         3.8680   -1.8300    0.4600 hn        1 MOL      0.017642
    128 H58         5.2570   -4.4330    0.1790 h1        1 MOL      0.057032
    129 H59         3.9150   -4.0410   -1.9870 h1        1 MOL      0.083081
    130 H60         5.6700   -4.1540   -2.1080 h1        1 MOL      0.083081
    131 H61         4.0570   -1.8900   -2.1230 ho        1 MOL      0.357007
    132 N12         7.4270   -2.9350   -0.0660 n         1 MOL     -0.450243
    133 C43         8.6090   -1.9750    0.1290 c3        1 MOL      0.130263
    134 C44         8.4270   -0.6360   -0.6090 c         1 MOL      0.492451
    135 O18         8.5060    0.3410    0.1420 o         1 MOL     -0.508927
    136 C45         9.8870   -2.6370   -0.2780 c3        1 MOL     -0.204101
    137 H62         7.5900   -3.8350   -0.5040 hn        1 MOL      0.307339
    138 H63         8.6880   -1.8200    1.2040 h1        1 MOL      0.093270
    139 H64         9.9440   -2.7840   -1.3510 hc        1 MOL      0.065086
    140 H65        10.7180   -2.0000    0.0350 hc        1 MOL      0.065086
    141 H66         9.9620   -3.6250    0.1840 hc        1 MOL      0.065086
    142 N13         7.9640   -0.5660   -1.8630 n         1 MOL     -0.413581
    143 C46         7.7910    0.7270   -2.4970 c3        1 MOL      0.017012
    144 C47         6.7440    1.5790   -1.7810 c         1 MOL      0.411952
    145 O19         6.6960    2.7730   -1.8860 o         1 MOL     -0.523612
    146 C48         7.3840    0.3830   -3.9900 c3        1 MOL     -0.253439
    147 H67         7.9210   -1.3710   -2.4680 hn        1 MOL      0.305281
    148 H68         8.7210    1.2910   -2.5620 h1        1 MOL      0.118572
    149 H69         7.1700    1.2890   -4.5550 hc        1 MOL      0.081242
    150 H70         8.2270   -0.0160   -4.5540 hc        1 MOL      0.081242
    151 H71         6.5200   -0.2730   -3.9130 hc        1 MOL      0.081242
    152 N14         5.7790    0.9610   -1.0320 n         1 MOL     -0.016845
    153 C49         4.7410    1.6980   -0.3830 c3        1 MOL     -0.114530
    154 C50         5.0730    2.0680    1.0670 c         1 MOL      0.505048
    155 O20         4.8260    3.1960    1.5580 o         1 MOL     -0.538979
    156 C51         3.4870    0.8750   -0.5010 c3        1 MOL      0.084995
    157 C52         2.2110    1.7070   -0.3490 c3        1 MOL     -0.106881
    158 C53         0.8650    0.9640   -0.5240 c         1 MOL      0.605504
    159 O21         0.8910   -0.0500   -1.2360 o         1 MOL     -0.696689
    160 O22        -0.2040    1.3040    0.0030 o         1 MOL     -0.696689
    161 H72         5.7870   -0.0480   -1.0270 hn        1 MOL     -0.000238
    162 H73         4.4630    2.6130   -0.9180 h1        1 MOL      0.054839
    163 H74         3.4390    0.0670    0.2320 hc        1 MOL     -0.015846
    164 H75         3.5430    0.3950   -1.4790 hc        1 MOL     -0.015846
    165 H76         2.2530    2.4040   -1.1930 hc        1 MOL      0.062484
    166 H77         2.3200    2.2800    0.5740 hc        1 MOL      0.062484
    167 N15         5.6100    1.1820    1.8880 n         1 MOL     -0.158355
    168 C54         6.2110    1.4610    3.1710 c3        1 MOL     -0.088429
    169 H78         6.4930    2.5120    3.2180 h1        1 MOL      0.057150
    170 H79         5.4950    1.2420    3.9630 h1        1 MOL      0.057150
    171 H80         7.0980    0.8410    3.3000 h1        1 MOL      0.057150
    172 H81         5.8440    0.2310    1.6250 hn        1 MOL      0.189852
    173 Ca1        -1.9710   -0.2180   -0.9510 Ca        1 MOL      1.755228
    174 O23        -1.0530   -1.9110   -2.6820 oh        1 MOL     -0.773485
    175 H82        -0.7140   -2.7560   -2.3910 ho        1 MOL      0.374957
    176 H83        -1.2380   -2.0360   -3.6140 ho        1 MOL      0.374957
@<TRIPOS>BOND
     1    1    2 1   
     2    1    4 1   
     3    1    5 1   
     4    1    6 1   
     5    2    3 2   
     6    2    7 1   
     7    7    8 1   
     8    7   15 1   
     9    8    9 1   
    10    8   11 1   
    11    8   16 1   
    12    9   10 2   
    13    9   19 1   
    14   11   12 1   
    15   11   17 1   
    16   11   18 1   
    17   12   13 1   
    18   12   14 1   
    19   19   20 1   
    20   19   28 1   
    21   20   21 1   
    22   20   23 1   
    23   20   29 1   
    24   21   22 2   
    25   21   41 1   
    26   23   24 1   
    27   23   30 1   
    28   23   31 1   
    29   24   25 1   
    30   24   32 1   
    31   24   33 1   
    32   25   26 1   
    33   25   34 1   
    34   25   35 1   
    35   26   27 1   
    36   26   36 1   
    37   26   37 1   
    38   27   38 1   
    39   27   39 1   
    40   27   40 1   
    41   41   42 1   
    42   41   49 1   
    43   42   43 1   
    44   42   45 1   
    45   42   50 1   
    46   43   44 2   
    47   43   53 1   
    48   45   46 1   
    49   45   51 1   
    50   45   52 1   
    51   46   47 1   
    52   46   48 1   
    53   53   54 1   
    54   53   57 1   
    55   54   55 1   
    56   54   58 1   
    57   54   59 1   
    58   55   56 2   
    59   55   60 1   
    60   60   61 1   
    61   60   68 1   
    62   61   62 1   
    63   61   64 1   
    64   61   69 1   
    65   62   63 2   
    66   62   74 1   
    67   64   65 1   
    68   64   70 1   
    69   64   71 1   
    70   65   66 1   
    71   65   67 2   
    72   66   72 1   
    73   66   73 1   
    74   74   75 1   
    75   74   78 1   
    76   75   76 1   
    77   75   79 1   
    78   75   80 1   
    79   76   77 2   
    80   76   81 1   
    81   81   82 1   
    82   81   93 1   
    83   82   83 1   
    84   82   85 1   
    85   82   94 1   
    86   83   84 2   
    87   83  102 1   
    88   85   86 1   
    89   85   95 1   
    90   85   96 1   
    91   86   87 ar  
    92   86   88 ar  
    93   87   89 ar  
    94   87   97 1   
    95   88   90 ar  
    96   88   98 1   
    97   89   91 ar  
    98   89   99 1   
    99   90   91 ar  
   100   90  100 1   
   101   91   92 1   
   102   92  101 1   
   103  102  103 1   
   104  102  110 1   
   105  103  104 1   
   106  103  106 1   
   107  103  111 1   
   108  104  105 2   
   109  104  121 1   
   110  106  107 1   
   111  106  108 1   
   112  106  112 1   
   113  107  109 1   
   114  107  113 1   
   115  107  114 1   
   116  108  115 1   
   117  108  116 1   
   118  108  117 1   
   119  109  118 1   
   120  109  119 1   
   121  109  120 1   
   122  121  122 1   
   123  121  127 1   
   124  122  123 1   
   125  122  125 1   
   126  122  128 1   
   127  123  124 2   
   128  123  132 1   
   129  125  126 1   
   130  125  129 1   
   131  125  130 1   
   132  126  131 1   
   133  132  133 1   
   134  132  137 1   
   135  133  134 1   
   136  133  136 1   
   137  133  138 1   
   138  134  135 2   
   139  134  142 1   
   140  136  139 1   
   141  136  140 1   
   142  136  141 1   
   143  142  143 1   
   144  142  147 1   
   145  143  144 1   
   146  143  146 1   
   147  143  148 1   
   148  144  145 2   
   149  144  152 1   
   150  146  149 1   
   151  146  150 1   
   152  146  151 1   
   153  152  153 1   
   154  152  161 1   
   155  153  154 1   
   156  153  156 1   
   157  153  162 1   
   158  154  155 2   
   159  154  167 1   
   160  156  157 1   
   161  156  163 1   
   162  156  164 1   
   163  157  158 1   
   164  157  165 1   
   165  157  166 1   
   166  158  159 1   
   167  158  160 1   
   168  167  168 1   
   169  167  172 1   
   170  168  169 1   
   171  168  170 1   
   172  168  171 1   
   173  174  175 1   
   174  174  176 1   
@<TRIPOS>SUBSTRUCTURE
     1 MOL         1 TEMP              0 ****  ****    0 ROOT
