@<TRIPOS>MOLECULE
MOL
  175   173     1     0     0
SMALL
resp


@<TRIPOS>ATOM
      1 C1          0.7770    4.3100    5.3720 c3        1 MOL     -0.336034
      2 C2          0.1310    4.0900    4.0190 c         1 MOL      0.781223
      3 O1          0.7920    3.8640    3.0290 o         1 MOL     -0.581683
      4 H1          0.2520    3.7220    6.1240 hc        1 MOL      0.081175
      5 H2          1.8210    3.9980    5.3320 hc        1 MOL      0.081175
      6 H3          0.7230    5.3670    5.6340 hc        1 MOL      0.081175
      7 N1         -1.2280    3.9410    3.9440 n         1 MOL     -0.793889
      8 C3         -1.8410    3.5260    2.6290 c3        1 MOL      0.324146
      9 C4         -1.8940    4.7400    1.6930 c         1 MOL      0.547376
     10 O2         -2.0210    5.8740    2.1950 o         1 MOL     -0.593081
     11 C5         -3.3120    3.0270    2.8390 c3        1 MOL     -0.152481
     12 C6         -3.9440    2.5060    1.5870 c         1 MOL      0.638113
     13 O3         -5.0960    2.9130    1.3830 o         1 MOL     -0.643372
     14 O4         -3.3240    1.8830    0.6600 o         1 MOL     -0.643372
     15 H4         -1.7300    3.9360    4.8240 hn        1 MOL      0.350599
     16 H5         -1.2930    2.7490    2.1100 h1        1 MOL      0.062139
     17 H6         -4.0100    3.7060    3.3290 hc        1 MOL      0.013475
     18 H7         -3.1460    2.1650    3.4800 hc        1 MOL      0.013475
     19 N2         -1.9780    4.5690    0.3910 n         1 MOL     -0.453191
     20 C7         -2.4700    5.4670   -0.6220 c3        1 MOL      0.521755
     21 C8         -3.3830    4.9600   -1.7530 c         1 MOL      0.299969
     22 O5         -3.5760    5.6820   -2.7680 o         1 MOL     -0.539675
     23 C9         -1.3420    6.3230   -1.1600 c3        1 MOL     -0.275626
     24 H8         -1.7510    3.6500    0.0150 hn        1 MOL      0.203617
     25 H9         -3.0450    6.1600   -0.0100 h1        1 MOL     -0.046704
     26 H10        -0.6360    5.6910   -1.6870 hc        1 MOL      0.046119
     27 H11        -1.8300    7.0940   -1.7570 hc        1 MOL      0.046119
     28 H12        -0.8310    6.8550   -0.3570 hc        1 MOL      0.046119
     29 N3         -4.0300    3.7730   -1.5640 n         1 MOL     -0.115978
     30 C10        -4.9490    3.2640   -2.6660 c3        1 MOL     -0.112922
     31 C11        -6.2430    2.4640   -2.2250 c         1 MOL      0.364114
     32 O6         -7.2200    2.2030   -3.0190 o         1 MOL     -0.542426
     33 C12        -4.2150    2.3930   -3.6300 c3        1 MOL     -0.044258
     34 C13        -3.3960    1.3110   -2.9730 c         1 MOL      0.687409
     35 O7         -2.1610    1.2270   -3.1130 o         1 MOL     -0.716569
     36 O8         -3.9310    0.4870   -2.2040 o         1 MOL     -0.716569
     37 H13        -3.9620    3.3620   -0.6440 hn        1 MOL      0.042561
     38 H14        -5.3760    4.2030   -3.0340 h1        1 MOL      0.115002
     39 H15        -3.4970    2.9260   -4.2590 hc        1 MOL      0.030625
     40 H16        -4.8590    1.9980   -4.4160 hc        1 MOL      0.030625
     41 N4         -6.2780    1.9100   -0.9770 n         1 MOL     -0.136609
     42 C14        -7.4110    1.2320   -0.4210 c3        1 MOL     -0.084409
     43 C15        -7.5780   -0.2380   -0.8950 c         1 MOL      0.415100
     44 O9         -8.7330   -0.6530   -0.7830 o         1 MOL     -0.582703
     45 H17        -5.5170    2.0540   -0.3210 hn        1 MOL      0.199592
     46 H18        -8.3590    1.7430   -0.5930 h1        1 MOL      0.067236
     47 H19        -7.3130    1.2840    0.6630 h1        1 MOL      0.067236
     48 N5         -6.4840   -0.8900   -1.2720 n         1 MOL      0.003508
     49 C16        -6.4410   -2.2700   -1.8060 c3        1 MOL     -0.227095
     50 C17        -6.5210   -3.3040   -0.7170 c         1 MOL      0.523816
     51 O10        -6.7240   -4.4590   -1.0600 o         1 MOL     -0.533835
     52 C18        -5.2930   -2.5170   -2.7560 c3        1 MOL      0.062854
     53 C19        -3.8860   -2.4320   -2.2930 c         1 MOL      0.540224
     54 N6         -2.9370   -2.7370   -3.1170 n         1 MOL     -0.624534
     55 O11        -3.6000   -2.0710   -1.1700 o         1 MOL     -0.419961
     56 H20        -5.6230   -0.3680   -1.2720 hn        1 MOL      0.039779
     57 H21        -7.3810   -2.3180   -2.3650 h1        1 MOL      0.133817
     58 H22        -5.3860   -1.9280   -3.6720 hc        1 MOL      0.014646
     59 H23        -5.4110   -3.5400   -3.1130 hc        1 MOL      0.014646
     60 H24        -3.2150   -3.0360   -4.0390 hn        1 MOL      0.313605
     61 H25        -1.9800   -2.6630   -2.8100 hn        1 MOL      0.313605
     62 N7         -6.3470   -2.9890    0.5730 n         1 MOL     -0.331802
     63 C20        -6.3490   -3.9730    1.6620 c3        1 MOL     -0.178945
     64 C21        -4.9140   -4.4860    2.0090 c         1 MOL      0.537433
     65 O12        -4.8940   -5.3390    2.8840 o         1 MOL     -0.575150
     66 H26        -5.9960   -2.0790    0.8350 hn        1 MOL      0.230915
     67 H27        -6.8720   -4.8900    1.4120 h1        1 MOL      0.121084
     68 H28        -6.7720   -3.5110    2.5540 h1        1 MOL      0.121084
     69 N8         -3.8070   -3.9680    1.4280 n         1 MOL     -0.300425
     70 C22        -2.3620   -4.3370    1.6710 c3        1 MOL     -0.161723
     71 C23        -1.3390   -3.2040    1.5650 c         1 MOL      0.626910
     72 O13        -1.4980   -2.2780    0.8160 o         1 MOL     -0.504809
     73 C24        -1.8980   -5.3890    0.6860 c3        1 MOL      0.495870
     74 C25        -2.6430   -6.7480    0.8850 c3        1 MOL     -0.463254
     75 O14        -2.3390   -4.9300   -0.5840 oh        1 MOL     -0.589762
     76 H29        -3.9670   -3.2050    0.7830 hn        1 MOL      0.211163
     77 H30        -2.2360   -4.7250    2.6770 h1        1 MOL      0.084060
     78 H31        -0.8250   -5.5730    0.7910 h1        1 MOL     -0.010919
     79 H32        -2.3270   -3.9640   -0.6450 ho        1 MOL      0.272838
     80 H33        -2.6880   -6.9480    1.9540 hc        1 MOL      0.119693
     81 H34        -3.6730   -6.6120    0.5720 hc        1 MOL      0.119693
     82 H35        -2.1250   -7.5720    0.3980 hc        1 MOL      0.119693
     83 N9         -0.1700   -3.3590    2.2280 n         1 MOL     -0.678762
     84 C26         1.0730   -2.5530    2.1050 c3        1 MOL     -0.059575
     85 C27         1.7320   -3.0380    0.7530 c         1 MOL      0.719519
     86 O15         2.2610   -4.1730    0.7550 o         1 MOL     -0.602499
     87 C28         2.0210   -2.6790    3.3870 c3        1 MOL      0.165869
     88 C29         1.2490   -2.1300    4.6960 c3        1 MOL      0.254104
     89 C30         3.3010   -1.8650    3.1080 c3        1 MOL     -0.084912
     90 C31         2.0750   -2.2420    5.9290 c3        1 MOL     -0.290112
     91 H36        -0.1020   -4.1110    2.8940 hn        1 MOL      0.326593
     92 H37         0.8250   -1.4980    1.9790 h1        1 MOL      0.025312
     93 H38         2.2450   -3.7320    3.5590 hc        1 MOL     -0.017354
     94 H39         0.3760   -2.7570    4.9040 hc        1 MOL     -0.052833
     95 H40         0.9200   -1.1040    4.5800 hc        1 MOL     -0.052833
     96 H41         3.1870   -0.9010    2.5970 hc        1 MOL     -0.004017
     97 H42         3.8680   -1.7450    4.0260 hc        1 MOL     -0.004017
     98 H43         3.9770   -2.5040    2.5320 hc        1 MOL     -0.004017
     99 H44         1.4410   -2.7250    6.6720 hc        1 MOL      0.053416
    100 H45         2.7760   -3.0640    5.8020 hc        1 MOL      0.053416
    101 H46         2.4900   -1.2950    6.2690 hc        1 MOL      0.053416
    102 N10         1.6470   -2.1360   -0.2380 n         1 MOL     -0.443180
    103 C32         2.5300   -2.1460   -1.3600 c3        1 MOL      0.126259
    104 C33         3.9130   -1.6260   -0.9110 c         1 MOL      0.477424
    105 O16         4.0940   -0.8780    0.0640 o         1 MOL     -0.339780
    106 C34         1.8750   -1.2660   -2.4220 c3        1 MOL     -0.326609
    107 C35         0.4070   -1.6020   -2.8190 c         1 MOL      0.686245
    108 O17         0.2050   -1.9930   -4.0270 o         1 MOL     -0.638640
    109 O18        -0.5960   -1.2840   -2.0790 o         1 MOL     -0.638640
    110 H47         1.2470   -1.2450    0.0140 hn        1 MOL      0.178986
    111 H48         2.7600   -3.1610   -1.6880 h1        1 MOL      0.056791
    112 H49         2.6350   -1.3610   -3.2070 hc        1 MOL      0.090303
    113 H50         1.9310   -0.2490   -2.0380 hc        1 MOL      0.090303
    114 N11         4.9960   -1.9150   -1.6620 n         1 MOL     -0.766272
    115 C36         6.3740   -1.6100   -1.2140 c3        1 MOL      0.443531
    116 C37         6.6460   -0.0360   -1.1730 c         1 MOL      0.273216
    117 O19         7.2920    0.3150   -0.2140 o         1 MOL     -0.472488
    118 C38         7.3040   -2.3610   -2.1890 c3        1 MOL     -0.215236
    119 C39         8.7750   -2.0120   -1.9650 ca        1 MOL      0.199784
    120 C40         9.6220   -1.3530   -2.8550 ca        1 MOL     -0.264758
    121 C41         9.4170   -2.3950   -0.7260 ca        1 MOL     -0.264758
    122 C42        10.9810   -1.0990   -2.5380 ca        1 MOL     -0.010622
    123 C43        10.8020   -2.1980   -0.4470 ca        1 MOL     -0.010622
    124 C44        11.6370   -1.5590   -1.3820 ca        1 MOL     -0.213295
    125 H51         4.8610   -2.2560   -2.6050 hn        1 MOL      0.386375
    126 H52         6.5750   -1.9830   -0.2110 h1        1 MOL      0.059123
    127 H53         6.9820   -2.0480   -3.1830 hc        1 MOL      0.062472
    128 H54         7.1860   -3.4380   -2.1690 hc        1 MOL      0.062472
    129 H55         9.2130   -0.9330   -3.7700 ha        1 MOL      0.123376
    130 H56         8.8450   -2.8660    0.0630 ha        1 MOL      0.123376
    131 H57        11.6120   -0.5690   -3.2280 ha        1 MOL      0.086587
    132 H58        11.2180   -2.5110    0.4960 ha        1 MOL      0.086587
    133 H59        12.6730   -1.2680   -1.2820 ha        1 MOL      0.131141
    134 N12         6.1450    0.8300   -2.0870 n         1 MOL     -0.044787
    135 C45         6.1240    2.2990   -1.9130 c3        1 MOL      0.072486
    136 C46         5.4270    2.7850   -0.5900 c         1 MOL      0.231105
    137 O20         5.7330    3.9060   -0.1730 o         1 MOL     -0.506311
    138 C47         5.2990    2.8390   -3.1140 c3        1 MOL     -0.148784
    139 C48         4.7820    1.6010   -3.8620 c3        1 MOL      0.038560
    140 C49         5.7100    0.4560   -3.4600 c3        1 MOL     -0.022090
    141 H60         7.1730    2.5970   -1.9630 h1        1 MOL      0.070999
    142 H61         4.4530    3.5130   -2.9350 hc        1 MOL      0.061297
    143 H62         6.0310    3.3320   -3.7620 hc        1 MOL      0.061297
    144 H63         3.7650    1.3930   -3.5330 hc        1 MOL      0.030550
    145 H64         4.6680    1.7330   -4.9400 hc        1 MOL      0.030550
    146 H65         5.3200   -0.5620   -3.5310 h1        1 MOL      0.000161
    147 H66         6.5720    0.4990   -4.1120 h1        1 MOL      0.000161
    148 N13         4.7520    1.9340    0.1560 n         1 MOL      0.038453
    149 C50         4.0760    2.3570    1.3880 c3        1 MOL     -0.016106
    150 C51         4.8050    1.9420    2.6660 c         1 MOL      0.372722
    151 O21         4.9720    2.6370    3.6240 o         1 MOL     -0.523794
    152 C52         2.6530    1.8240    1.3910 c3        1 MOL      0.031019
    153 C53         1.7810    2.3800    0.2940 c3        1 MOL     -0.042099
    154 C54         0.3840    1.7250    0.3070 c         1 MOL      0.414557
    155 O22        -0.5160    2.3190   -0.3530 o         1 MOL     -0.599760
    156 O23         0.1850    0.6250    0.7800 o         1 MOL     -0.599760
    157 H67         4.4560    1.0540   -0.2460 hn        1 MOL      0.051494
    158 H68         3.9830    3.4360    1.4640 h1        1 MOL      0.079227
    159 H69         2.1780    2.0720    2.3320 hc        1 MOL      0.009759
    160 H70         2.8110    0.7450    1.3310 hc        1 MOL      0.009759
    161 H71         2.1870    2.1290   -0.6840 hc        1 MOL      0.061693
    162 H72         1.7320    3.4690    0.3590 hc        1 MOL      0.061693
    163 N14         5.5170    0.8290    2.4540 n         1 MOL      0.085145
    164 C55         6.5850    0.3920    3.3570 c3        1 MOL     -0.278264
    165 H73         6.1460   -0.0430    4.2540 h1        1 MOL      0.089813
    166 H74         7.2010   -0.3550    2.8560 h1        1 MOL      0.089813
    167 H75         7.2020    1.2480    3.6320 h1        1 MOL      0.089813
    168 H76         5.5510    0.4170    1.5360 hn        1 MOL     -0.011367
    169 Ca1        -2.0360    0.0130   -0.4750 Ca        1 MOL      1.677710
    170 O24        -1.4480    0.0660    2.7370 oh        1 MOL     -0.831186
    171 H77        -0.7080    0.3360    2.1920 ho        1 MOL      0.402763
    172 H78        -1.2900    0.5020    3.5770 ho        1 MOL      0.402763
    173 O25        -3.8850   -0.7850    1.5330 oh        1 MOL     -0.831186
    174 H79        -4.6600   -0.6010    2.0630 ho        1 MOL      0.402763
    175 H80        -3.1450   -0.6880    2.1410 ho        1 MOL      0.402763
@<TRIPOS>BOND
     1    1    2 1   
     2    1    4 1   
     3    1    5 1   
     4    1    6 1   
     5    2    3 2   
     6    2    7 1   
     7    7    8 1   
     8    7   15 1   
     9    8    9 1   
    10    8   11 1   
    11    8   16 1   
    12    9   10 2   
    13    9   19 1   
    14   11   12 1   
    15   11   17 1   
    16   11   18 1   
    17   12   13 1   
    18   12   14 1   
    19   19   20 1   
    20   19   24 1   
    21   20   21 1   
    22   20   23 1   
    23   20   25 1   
    24   21   22 2   
    25   21   29 1   
    26   23   26 1   
    27   23   27 1   
    28   23   28 1   
    29   29   30 1   
    30   29   37 1   
    31   30   31 1   
    32   30   33 1   
    33   30   38 1   
    34   31   32 2   
    35   31   41 1   
    36   33   34 1   
    37   33   39 1   
    38   33   40 1   
    39   34   35 1   
    40   34   36 1   
    41   41   42 1   
    42   41   45 1   
    43   42   43 1   
    44   42   46 1   
    45   42   47 1   
    46   43   44 2   
    47   43   48 1   
    48   48   49 1   
    49   48   56 1   
    50   49   50 1   
    51   49   52 1   
    52   49   57 1   
    53   50   51 2   
    54   50   62 1   
    55   52   53 1   
    56   52   58 1   
    57   52   59 1   
    58   53   54 1   
    59   53   55 2   
    60   54   60 1   
    61   54   61 1   
    62   62   63 1   
    63   62   66 1   
    64   63   64 1   
    65   63   67 1   
    66   63   68 1   
    67   64   65 2   
    68   64   69 1   
    69   69   70 1   
    70   69   76 1   
    71   70   71 1   
    72   70   73 1   
    73   70   77 1   
    74   71   72 2   
    75   71   83 1   
    76   73   74 1   
    77   73   75 1   
    78   73   78 1   
    79   74   80 1   
    80   74   81 1   
    81   74   82 1   
    82   75   79 1   
    83   83   84 1   
    84   83   91 1   
    85   84   85 1   
    86   84   87 1   
    87   84   92 1   
    88   85   86 2   
    89   85  102 1   
    90   87   88 1   
    91   87   89 1   
    92   87   93 1   
    93   88   90 1   
    94   88   94 1   
    95   88   95 1   
    96   89   96 1   
    97   89   97 1   
    98   89   98 1   
    99   90   99 1   
   100   90  100 1   
   101   90  101 1   
   102  102  103 1   
   103  102  110 1   
   104  103  104 1   
   105  103  106 1   
   106  103  111 1   
   107  104  105 2   
   108  104  114 1   
   109  106  107 1   
   110  106  112 1   
   111  106  113 1   
   112  107  108 1   
   113  107  109 1   
   114  114  115 1   
   115  114  125 1   
   116  115  116 1   
   117  115  118 1   
   118  115  126 1   
   119  116  117 2   
   120  116  134 1   
   121  118  119 1   
   122  118  127 1   
   123  118  128 1   
   124  119  120 ar  
   125  119  121 ar  
   126  120  122 ar  
   127  120  129 1   
   128  121  123 ar  
   129  121  130 1   
   130  122  124 ar  
   131  122  131 1   
   132  123  124 ar  
   133  123  132 1   
   134  124  133 1   
   135  134  135 1   
   136  134  140 1   
   137  135  136 1   
   138  135  138 1   
   139  135  141 1   
   140  136  137 2   
   141  136  148 1   
   142  138  139 1   
   143  138  142 1   
   144  138  143 1   
   145  139  140 1   
   146  139  144 1   
   147  139  145 1   
   148  140  146 1   
   149  140  147 1   
   150  148  149 1   
   151  148  157 1   
   152  149  150 1   
   153  149  152 1   
   154  149  158 1   
   155  150  151 2   
   156  150  163 1   
   157  152  153 1   
   158  152  159 1   
   159  152  160 1   
   160  153  154 1   
   161  153  161 1   
   162  153  162 1   
   163  154  155 1   
   164  154  156 1   
   165  163  164 1   
   166  163  168 1   
   167  164  165 1   
   168  164  166 1   
   169  164  167 1   
   170  170  171 1   
   171  170  172 1   
   172  173  174 1   
   173  173  175 1   
@<TRIPOS>SUBSTRUCTURE
     1 MOL         1 TEMP              0 ****  ****    0 ROOT
