@<TRIPOS>MOLECULE
MOL
  172   171     1     0     0
SMALL
resp


@<TRIPOS>ATOM
      1 C1         -0.3260   -2.9400    6.2690 c3        1 MOL     -0.418731
      2 C2          0.1170   -3.0800    4.8110 c         1 MOL      0.745568
      3 O1         -0.6920   -3.3710    3.8860 o         1 MOL     -0.559020
      4 H1         -0.1070   -1.9310    6.6190 hc        1 MOL      0.101742
      5 H2         -1.3970   -3.1250    6.3430 hc        1 MOL      0.101742
      6 H3          0.2120   -3.6610    6.8840 hc        1 MOL      0.101742
      7 N1          1.4530   -3.0680    4.6170 n         1 MOL     -0.720773
      8 C3          2.0830   -2.9130    3.2530 c3        1 MOL      0.414141
      9 C4          2.1240   -4.2440    2.4910 c         1 MOL      0.607167
     10 O2          2.4140   -5.2670    3.0920 o         1 MOL     -0.600243
     11 C5          3.4510   -2.1920    3.3440 c3        1 MOL     -0.483876
     12 C6          4.1490   -2.0310    1.9710 c         1 MOL      0.832790
     13 O3          3.5230   -1.7520    0.8820 o         1 MOL     -0.691509
     14 O4          5.3660   -2.2020    1.8820 o         1 MOL     -0.691509
     15 H4          2.0770   -2.9810    5.4130 hn        1 MOL      0.330180
     16 H5          1.4710   -2.1790    2.7200 h1        1 MOL     -0.000165
     17 H6          4.0520   -2.9280    3.8850 hc        1 MOL      0.094315
     18 H7          3.3930   -1.2060    3.8000 hc        1 MOL      0.094315
     19 N2          2.0490   -4.2350    1.1820 n         1 MOL     -0.635483
     20 C7          2.0570   -5.3800    0.2560 c3        1 MOL      0.438713
     21 C8          2.9480   -5.3120   -0.9670 c         1 MOL      0.525263
     22 O5          2.9560   -6.3400   -1.6050 o         1 MOL     -0.576629
     23 C9          0.6340   -5.6540   -0.1310 c3        1 MOL     -0.206746
     24 H8          1.8120   -3.3700    0.7210 hn        1 MOL      0.276827
     25 H9          2.4180   -6.2750    0.7580 h1        1 MOL     -0.029733
     26 H10         0.6320   -6.5510   -0.7540 hc        1 MOL      0.041324
     27 H11         0.0020   -5.8350    0.7360 hc        1 MOL      0.041324
     28 H12         0.2640   -4.8290   -0.7470 hc        1 MOL      0.041324
     29 N3          3.6940   -4.2360   -1.2580 n         1 MOL     -0.525851
     30 C10         4.3790   -4.0340   -2.5080 c3        1 MOL      0.208701
     31 C11         5.7440   -3.3090   -2.2700 c         1 MOL      0.437979
     32 O6          6.6620   -3.4430   -3.1160 o         1 MOL     -0.568404
     33 C12         3.4620   -3.2040   -3.3970 c3        1 MOL     -0.177408
     34 C13         2.9740   -1.9380   -2.7550 c         1 MOL      0.702518
     35 O7          3.8140   -1.1590   -2.2660 o         1 MOL     -0.699340
     36 O8          1.7600   -1.6710   -2.5850 o         1 MOL     -0.699340
     37 H13         3.5920   -3.4610   -0.6220 hn        1 MOL      0.267316
     38 H14         4.6250   -4.9950   -2.9540 h1        1 MOL      0.049545
     39 H15         2.5570   -3.7250   -3.7160 hc        1 MOL      0.034654
     40 H16         4.0520   -2.9390   -4.2750 hc        1 MOL      0.034654
     41 N4          5.9600   -2.6790   -1.0650 n         1 MOL     -0.229667
     42 C14         7.1640   -2.0040   -0.6550 c3        1 MOL     -0.122109
     43 C15         7.3070   -0.5540   -1.1360 c         1 MOL      0.474537
     44 O9          8.3960   -0.0700   -0.9140 o         1 MOL     -0.615267
     45 H17         5.1980   -2.6420   -0.3950 hn        1 MOL      0.137029
     46 H18         8.0570   -2.6070   -0.7890 h1        1 MOL      0.106128
     47 H19         7.1740   -1.7730    0.4070 h1        1 MOL      0.106128
     48 N5          6.2710    0.0660   -1.7030 n         1 MOL     -0.186535
     49 C16         6.4050    1.4380   -2.3200 c3        1 MOL     -0.040670
     50 C17         6.6670    2.6570   -1.3040 c         1 MOL      0.515096
     51 O10         6.7830    3.7340   -1.7910 o         1 MOL     -0.534725
     52 C18         5.2440    1.7080   -3.3650 c3        1 MOL     -0.200426
     53 C19         3.8990    1.7020   -2.6800 c         1 MOL      0.780479
     54 N6          2.8190    1.7720   -3.4060 n         1 MOL     -0.731963
     55 O11         3.6990    1.7490   -1.4620 o         1 MOL     -0.627573
     56 H20         5.4850   -0.5570   -1.8260 hn        1 MOL      0.151067
     57 H21         7.3370    1.4060   -2.8910 h1        1 MOL      0.087171
     58 H22         5.2080    0.8810   -4.0690 hc        1 MOL      0.071907
     59 H23         5.2590    2.6190   -3.9540 hc        1 MOL      0.071907
     60 H24         2.8130    1.6740   -4.4050 hn        1 MOL      0.328595
     61 H25         1.9100    2.0330   -3.0450 hn        1 MOL      0.328595
     62 N7          6.5860    2.4090   -0.0400 n         1 MOL     -0.352796
     63 C20         6.5590    3.5240    0.9100 c3        1 MOL      0.015586
     64 C21         5.2100    4.2880    1.2740 c         1 MOL      0.368657
     65 O12         5.1620    5.2760    2.0490 o         1 MOL     -0.561675
     66 H26         6.3940    1.4850    0.3120 hn        1 MOL      0.300549
     67 H27         7.3640    4.1840    0.5870 h1        1 MOL      0.054625
     68 H28         6.9440    3.1410    1.8560 h1        1 MOL      0.054625
     69 N8          4.1220    3.9060    0.6690 n         1 MOL      0.011804
     70 C22         2.7720    4.5860    0.8070 c3        1 MOL     -0.513886
     71 C23         1.6290    3.6020    0.9600 c         1 MOL      0.715006
     72 O13         1.6630    2.5300    0.3690 o         1 MOL     -0.443818
     73 C24         2.5140    5.5970   -0.3580 c3        1 MOL      0.507594
     74 C25         3.2900    6.9640   -0.0380 c3        1 MOL     -0.621116
     75 O14         3.0200    5.1150   -1.5560 oh        1 MOL     -0.560419
     76 H29         4.1160    3.1140    0.0490 hn        1 MOL      0.177876
     77 H30         2.8100    5.1170    1.7600 h1        1 MOL      0.171564
     78 H31         1.4460    5.7920   -0.4840 h1        1 MOL      0.004813
     79 H32         2.7180    4.2130   -1.6360 ho        1 MOL      0.320426
     80 H33         3.1230    7.2740    0.9920 hc        1 MOL      0.167956
     81 H34         4.3420    6.9100   -0.3030 hc        1 MOL      0.167956
     82 H35         2.7400    7.6400   -0.6990 hc        1 MOL      0.167956
     83 N9          0.5560    3.9610    1.7540 n         1 MOL     -0.747021
     84 C26        -0.6790    3.2100    1.8620 c3        1 MOL     -0.136139
     85 C27        -1.5150    3.2020    0.5840 c         1 MOL      0.755538
     86 O15        -1.9370    4.2800    0.2370 o         1 MOL     -0.626273
     87 C28        -1.5110    3.6240    3.0510 c3        1 MOL      0.272870
     88 C29        -0.6160    3.6590    4.3690 c3        1 MOL      0.035796
     89 C30        -2.8120    2.7720    3.1430 c3        1 MOL     -0.026074
     90 C31        -1.3250    4.2090    5.5050 c3        1 MOL     -0.290941
     91 H36         0.5590    4.9290    2.0490 hn        1 MOL      0.372634
     92 H37        -0.3380    2.2100    2.1120 h1        1 MOL      0.137657
     93 H38        -1.8050    4.6690    2.9700 hc        1 MOL     -0.039592
     94 H39         0.2130    4.3500    4.1970 hc        1 MOL      0.014790
     95 H40        -0.3780    2.6230    4.6020 hc        1 MOL      0.014790
     96 H41        -2.6850    1.7020    3.2900 hc        1 MOL     -0.016771
     97 H42        -3.3740    3.1870    3.9770 hc        1 MOL     -0.016771
     98 H43        -3.4300    2.9490    2.2680 hc        1 MOL     -0.016771
     99 H44        -2.2480    3.6520    5.6750 hc        1 MOL      0.062191
    100 H45        -0.6930    3.9140    6.3500 hc        1 MOL      0.062191
    101 H46        -1.5880    5.2620    5.4390 hc        1 MOL      0.062191
    102 N10        -1.7640    2.0340   -0.0220 n         1 MOL     -0.384726
    103 C32        -2.6220    1.8970   -1.1910 c3        1 MOL      0.209143
    104 C33        -4.0850    1.5020   -0.8060 c         1 MOL      0.293911
    105 O16        -4.4310    1.0570    0.2750 o         1 MOL     -0.177554
    106 C34        -2.0280    0.9410   -2.2140 c3        1 MOL     -0.250400
    107 C35        -0.5810    1.2230   -2.7440 c         1 MOL      0.651663
    108 O17         0.3790    1.0960   -1.9300 o         1 MOL     -0.654132
    109 O18        -0.4290    1.4270   -4.0070 o         1 MOL     -0.654132
    110 H47        -1.4840    1.2190    0.5000 hn        1 MOL     -0.013840
    111 H48        -2.6640    2.8950   -1.6050 h1        1 MOL      0.043386
    112 H49        -2.6940    0.9680   -3.0770 hc        1 MOL      0.068472
    113 H50        -2.0930   -0.0350   -1.7290 hc        1 MOL      0.068472
    114 N11        -5.0810    1.6760   -1.7090 n         1 MOL     -0.622638
    115 C36        -6.5540    1.3770   -1.4890 c3        1 MOL      0.369944
    116 C37        -6.7740   -0.0830   -1.0200 c         1 MOL      0.493908
    117 O19        -7.3230   -0.2610    0.0540 o         1 MOL     -0.553929
    118 C38        -7.3370    1.7620   -2.7060 c3        1 MOL     -0.167491
    119 C39        -8.7730    1.3480   -2.5630 ca        1 MOL     -0.004225
    120 C40        -9.5710    2.1420   -1.6900 ca        1 MOL     -0.103447
    121 C41        -9.2820    0.1600   -3.1170 ca        1 MOL     -0.103447
    122 C42       -10.8990    1.7240   -1.4410 ca        1 MOL     -0.188006
    123 C43       -10.5710   -0.2450   -2.8330 ca        1 MOL     -0.188006
    124 C44       -11.3150    0.4750   -1.9210 ca        1 MOL     -0.005450
    125 H51        -4.8420    2.0030   -2.6320 hn        1 MOL      0.324575
    126 H52        -6.9460    1.9680   -0.6560 h1        1 MOL      0.008713
    127 H53        -6.8600    1.1620   -3.4720 hc        1 MOL      0.054453
    128 H54        -7.2650    2.8360   -2.8920 hc        1 MOL      0.054453
    129 H55        -9.1650    3.0770   -1.3390 ha        1 MOL      0.112735
    130 H56        -8.6610   -0.3680   -3.8220 ha        1 MOL      0.112735
    131 H57       -11.5570    2.2390   -0.7580 ha        1 MOL      0.126246
    132 H58       -11.0000   -1.0850   -3.3510 ha        1 MOL      0.126246
    133 H59       -12.2930    0.1300   -1.6230 ha        1 MOL      0.075613
    134 N12        -6.3040   -1.1600   -1.7340 n         1 MOL     -0.025530
    135 C45        -6.3190   -2.4810   -1.1110 c3        1 MOL     -0.086921
    136 C46        -5.5950   -2.6850    0.2320 c         1 MOL      0.451017
    137 O20        -5.6560   -3.7960    0.7250 o         1 MOL     -0.542410
    138 C47        -5.8410   -3.4530   -2.2330 c3        1 MOL     -0.153248
    139 C48        -4.8340   -2.5340   -3.0820 c3        1 MOL      0.060156
    140 C49        -5.7080   -1.2550   -3.0570 c3        1 MOL     -0.054011
    141 H60        -7.3790   -2.6300   -0.9220 h1        1 MOL      0.074429
    142 H61        -5.3410   -4.3640   -1.9030 hc        1 MOL      0.065216
    143 H62        -6.6860   -3.6710   -2.8800 hc        1 MOL      0.065216
    144 H63        -3.8840   -2.4800   -2.5470 hc        1 MOL      0.030749
    145 H64        -4.6460   -2.9640   -4.0700 hc        1 MOL      0.030749
    146 H65        -5.0500   -0.4180   -3.2770 h1        1 MOL     -0.000815
    147 H66        -6.5210   -1.2240   -3.7900 h1        1 MOL     -0.000815
    148 N13        -4.8580   -1.6970    0.7210 n         1 MOL     -0.086566
    149 C50        -4.1290   -1.6840    1.9810 c3        1 MOL      0.000118
    150 C51        -4.7830   -0.8410    2.9930 c         1 MOL      0.337967
    151 O21        -5.0410   -1.2640    4.1440 o         1 MOL     -0.553757
    152 C52        -2.6790   -1.1680    1.7860 c3        1 MOL     -0.076765
    153 C53        -1.8090   -1.8980    0.7640 c3        1 MOL     -0.017008
    154 C54        -0.4260   -1.2810    0.7680 c         1 MOL      0.664772
    155 O22         0.4940   -1.9310    0.1940 o         1 MOL     -0.720680
    156 O23        -0.1910   -0.0860    1.1540 o         1 MOL     -0.720680
    157 H67        -4.8830   -0.8110    0.2410 hn        1 MOL      0.007190
    158 H68        -4.1070   -2.6720    2.4300 h1        1 MOL      0.096216
    159 H69        -2.1800   -1.1970    2.7530 hc        1 MOL      0.067395
    160 H70        -2.6410   -0.1280    1.4590 hc        1 MOL      0.067395
    161 H71        -2.2300   -1.7820   -0.2430 hc        1 MOL      0.040218
    162 H72        -1.7110   -2.9590    0.9980 hc        1 MOL      0.040218
    163 N14        -5.4350    0.3040    2.6480 n         1 MOL      0.019599
    164 C55        -6.3870    1.0370    3.4130 c3        1 MOL     -0.088256
    165 H73        -6.0070    2.0420    3.5990 h1        1 MOL      0.035518
    166 H74        -7.3250    1.1010    2.8620 h1        1 MOL      0.035518
    167 H75        -6.5560    0.5320    4.3640 h1        1 MOL      0.035518
    168 H76        -5.2960    0.6490    1.7070 hn        1 MOL      0.024761
    169 Ca1         2.1130   -0.0020   -0.5280 Ca        1 MOL      1.728784
    170 O24         3.8690    1.0150    1.3600 oh        1 MOL     -1.006517
    171 H77         3.4950    1.5320    2.0650 ho        1 MOL      0.447827
    172 H78         4.7520    0.7970    1.6510 ho        1 MOL      0.447827
@<TRIPOS>BOND
     1    1    2 1   
     2    1    4 1   
     3    1    5 1   
     4    1    6 1   
     5    2    3 2   
     6    2    7 1   
     7    7    8 1   
     8    7   15 1   
     9    8    9 1   
    10    8   11 1   
    11    8   16 1   
    12    9   10 2   
    13    9   19 1   
    14   11   12 1   
    15   11   17 1   
    16   11   18 1   
    17   12   13 1   
    18   12   14 1   
    19   19   20 1   
    20   19   24 1   
    21   20   21 1   
    22   20   23 1   
    23   20   25 1   
    24   21   22 2   
    25   21   29 1   
    26   23   26 1   
    27   23   27 1   
    28   23   28 1   
    29   29   30 1   
    30   29   37 1   
    31   30   31 1   
    32   30   33 1   
    33   30   38 1   
    34   31   32 2   
    35   31   41 1   
    36   33   34 1   
    37   33   39 1   
    38   33   40 1   
    39   34   35 1   
    40   34   36 1   
    41   41   42 1   
    42   41   45 1   
    43   42   43 1   
    44   42   46 1   
    45   42   47 1   
    46   43   44 2   
    47   43   48 1   
    48   48   49 1   
    49   48   56 1   
    50   49   50 1   
    51   49   52 1   
    52   49   57 1   
    53   50   51 2   
    54   50   62 1   
    55   52   53 1   
    56   52   58 1   
    57   52   59 1   
    58   53   54 1   
    59   53   55 2   
    60   54   60 1   
    61   54   61 1   
    62   62   63 1   
    63   62   66 1   
    64   63   64 1   
    65   63   67 1   
    66   63   68 1   
    67   64   65 2   
    68   64   69 1   
    69   69   70 1   
    70   69   76 1   
    71   70   71 1   
    72   70   73 1   
    73   70   77 1   
    74   71   72 2   
    75   71   83 1   
    76   73   74 1   
    77   73   75 1   
    78   73   78 1   
    79   74   80 1   
    80   74   81 1   
    81   74   82 1   
    82   75   79 1   
    83   83   84 1   
    84   83   91 1   
    85   84   85 1   
    86   84   87 1   
    87   84   92 1   
    88   85   86 2   
    89   85  102 1   
    90   87   88 1   
    91   87   89 1   
    92   87   93 1   
    93   88   90 1   
    94   88   94 1   
    95   88   95 1   
    96   89   96 1   
    97   89   97 1   
    98   89   98 1   
    99   90   99 1   
   100   90  100 1   
   101   90  101 1   
   102  102  103 1   
   103  102  110 1   
   104  103  104 1   
   105  103  106 1   
   106  103  111 1   
   107  104  105 2   
   108  104  114 1   
   109  106  107 1   
   110  106  112 1   
   111  106  113 1   
   112  107  108 1   
   113  107  109 1   
   114  114  115 1   
   115  114  125 1   
   116  115  116 1   
   117  115  118 1   
   118  115  126 1   
   119  116  117 2   
   120  116  134 1   
   121  118  119 1   
   122  118  127 1   
   123  118  128 1   
   124  119  120 ar  
   125  119  121 ar  
   126  120  122 ar  
   127  120  129 1   
   128  121  123 ar  
   129  121  130 1   
   130  122  124 ar  
   131  122  131 1   
   132  123  124 ar  
   133  123  132 1   
   134  124  133 1   
   135  134  135 1   
   136  134  140 1   
   137  135  136 1   
   138  135  138 1   
   139  135  141 1   
   140  136  137 2   
   141  136  148 1   
   142  138  139 1   
   143  138  142 1   
   144  138  143 1   
   145  139  140 1   
   146  139  144 1   
   147  139  145 1   
   148  140  146 1   
   149  140  147 1   
   150  148  149 1   
   151  148  157 1   
   152  149  150 1   
   153  149  152 1   
   154  149  158 1   
   155  150  151 2   
   156  150  163 1   
   157  152  153 1   
   158  152  159 1   
   159  152  160 1   
   160  153  154 1   
   161  153  161 1   
   162  153  162 1   
   163  154  155 1   
   164  154  156 1   
   165  163  164 1   
   166  163  168 1   
   167  164  165 1   
   168  164  166 1   
   169  164  167 1   
   170  170  171 1   
   171  170  172 1   
@<TRIPOS>SUBSTRUCTURE
     1 MOL         1 TEMP              0 ****  ****    0 ROOT
