@<TRIPOS>MOLECULE
MOL
  186   183     1     0     0
SMALL
resp


@<TRIPOS>ATOM
      1 C1          1.0650   -1.6490    6.3750 c3        1 MOL     -0.249141
      2 C2          1.2310   -1.5060    4.8470 c         1 MOL      0.683272
      3 O1          0.2330   -1.9010    4.1750 o         1 MOL     -0.523111
      4 H1          1.6400   -0.8710    6.8780 hc        1 MOL      0.054236
      5 H2          0.0120   -1.5490    6.6380 hc        1 MOL      0.054236
      6 H3          1.4270   -2.6280    6.6910 hc        1 MOL      0.054236
      7 N1          2.4010   -1.1050    4.3720 n         1 MOL     -0.672071
      8 C3          2.7710   -1.1810    2.9650 c3        1 MOL      0.751128
      9 C4          3.0990   -2.6920    2.6220 c         1 MOL      0.207080
     10 O2          4.0250   -3.2960    3.0900 o         1 MOL     -0.538445
     11 C5          4.0410   -0.2380    2.7970 c3        1 MOL     -0.396525
     12 C6          4.5730   -0.3220    1.3070 c         1 MOL      0.741109
     13 O3          3.8920   -0.9230    0.4350 o         1 MOL     -0.582666
     14 O4          5.6800    0.1140    1.0770 o         1 MOL     -0.582666
     15 H4          3.2080   -0.8840    4.9480 hn        1 MOL      0.312112
     16 H5          1.9890   -0.8200    2.2910 h1        1 MOL     -0.181947
     17 H6          4.7580   -0.6210    3.5160 hc        1 MOL      0.035512
     18 H7          3.6600    0.7700    2.9490 hc        1 MOL      0.035512
     19 N2          2.2790   -3.2230    1.6820 n         1 MOL      0.019899
     20 C7          2.2640   -4.6340    1.3990 c3        1 MOL     -0.031018
     21 C8          3.2850   -4.9810    0.2760 c         1 MOL      0.524621
     22 O5          3.6170   -6.1580    0.1660 o         1 MOL     -0.601770
     23 C9          0.8610   -5.0990    0.9400 c3        1 MOL      0.326934
     24 C10        -0.2980   -4.7080    1.8540 c3        1 MOL     -0.057398
     25 C11         0.6710   -6.5780    0.5600 c3        1 MOL     -0.310632
     26 C12        -0.0920   -5.1350    3.2770 c3        1 MOL     -0.183914
     27 H8          1.5600   -2.6470    1.2760 hn        1 MOL      0.011129
     28 H9          2.5420   -5.2100    2.2730 h1        1 MOL      0.036405
     29 H10         0.6920   -4.5250    0.0260 hc        1 MOL     -0.020156
     30 H11        -1.3120   -4.9860    1.5550 hc        1 MOL      0.048730
     31 H12        -0.3150   -3.6270    1.9960 hc        1 MOL      0.048730
     32 H13         1.0510   -6.6130   -0.4560 hc        1 MOL      0.057702
     33 H14         1.1730   -7.2600    1.2440 hc        1 MOL      0.057702
     34 H15        -0.3930   -6.7540    0.6580 hc        1 MOL      0.057702
     35 H16         0.4230   -4.3900    3.8940 hc        1 MOL      0.025435
     36 H17        -1.0570   -5.2190    3.7790 hc        1 MOL      0.025435
     37 H18         0.4110   -6.1070    3.3460 hc        1 MOL      0.025435
     38 N3          3.8750   -4.0030   -0.3970 n         1 MOL     -0.344938
     39 C13         4.8250   -4.3390   -1.5130 c3        1 MOL      0.054862
     40 C14         6.0610   -3.4420   -1.5480 c         1 MOL      0.319070
     41 O6          6.9170   -3.3660   -2.4820 o         1 MOL     -0.490486
     42 C15         4.0780   -4.3580   -2.9260 c3        1 MOL     -0.199292
     43 C16         3.2730   -3.1040   -3.2780 c         1 MOL      0.802679
     44 O7          2.4420   -3.1660   -4.1820 o         1 MOL     -0.725967
     45 O8          3.2620   -2.0810   -2.5740 o         1 MOL     -0.725967
     46 H19         3.5900   -3.0500   -0.2130 hn        1 MOL      0.163204
     47 H20         5.1680   -5.3750   -1.4820 h1        1 MOL      0.100512
     48 H21         3.3630   -5.1760   -2.8640 hc        1 MOL      0.048887
     49 H22         4.7980   -4.5980   -3.7010 hc        1 MOL      0.048887
     50 N4          6.2250   -2.6750   -0.4610 n         1 MOL     -0.207381
     51 C17         7.5380   -2.0240   -0.1530 c3        1 MOL     -0.142084
     52 C18         7.8920   -0.8690   -1.0650 c         1 MOL      0.456308
     53 O9          9.0630   -0.7060   -1.4220 o         1 MOL     -0.628755
     54 H23         5.5430   -2.8240    0.2680 hn        1 MOL      0.206846
     55 H24         8.3250   -2.7760   -0.2360 h1        1 MOL      0.085662
     56 H25         7.5590   -1.6210    0.8630 h1        1 MOL      0.085662
     57 N5          6.9580   -0.1190   -1.4510 n         1 MOL     -0.017074
     58 C19         7.1770    1.1710   -2.1190 c3        1 MOL     -0.001435
     59 C20         7.1650    2.3890   -1.1030 c         1 MOL      0.452728
     60 O10         7.5120    3.4890   -1.4420 o         1 MOL     -0.562423
     61 C21         6.0750    1.2240   -3.2300 c3        1 MOL     -0.210191
     62 C22         4.6120    1.3020   -2.7050 c         1 MOL      0.763300
     63 O11         3.6540    0.9290   -3.4410 o         1 MOL     -0.751471
     64 O12         4.3100    1.6120   -1.5630 o         1 MOL     -0.751471
     65 H26         6.0720   -0.3590   -1.0370 hn        1 MOL      0.036429
     66 H27         8.1630    1.1730   -2.5730 h1        1 MOL      0.094074
     67 H28         6.2010    0.3040   -3.8120 hc        1 MOL      0.050586
     68 H29         6.3230    2.0610   -3.8850 hc        1 MOL      0.050586
     69 N6          7.0380    2.1520    0.2200 n         1 MOL     -0.295063
     70 C23         7.1520    3.2340    1.1750 c3        1 MOL     -0.052840
     71 C24         5.7950    3.9430    1.3660 c         1 MOL      0.527963
     72 O13         5.8520    5.0430    1.8530 o         1 MOL     -0.602800
     73 H30         6.7100    1.2310    0.4800 hn        1 MOL      0.183455
     74 H31         7.9260    3.9760    0.9760 h1        1 MOL      0.069568
     75 H32         7.4260    2.7730    2.1310 h1        1 MOL      0.069568
     76 N7          4.6110    3.4330    1.0090 n         1 MOL     -0.412462
     77 C25         3.2860    4.1320    1.2770 c3        1 MOL      0.197326
     78 C26         2.1850    3.0890    1.2790 c         1 MOL      0.388779
     79 O14         2.3660    1.9710    0.7510 o         1 MOL     -0.600111
     80 C27         2.9700    5.1450    0.1700 c3        1 MOL     -0.270067
     81 C28         3.9420    6.3740    0.0800 c3        1 MOL     -0.244986
     82 C29         3.2620    7.3700   -0.8070 c         1 MOL      0.684399
     83 N8          3.6580    7.5870   -2.0720 n         1 MOL     -0.825464
     84 O15         2.4330    8.0990   -0.4190 o         1 MOL     -0.566921
     85 H33         4.6010    2.5560    0.5090 hn        1 MOL      0.345068
     86 H34         3.3290    4.6020    2.2620 h1        1 MOL      0.040451
     87 H35         1.9910    5.5190    0.4560 hc        1 MOL      0.103919
     88 H36         3.0270    4.6320   -0.7940 hc        1 MOL      0.103919
     89 H37         4.9210    6.1390   -0.3460 hc        1 MOL      0.124618
     90 H38         4.1170    6.8190    1.0530 hc        1 MOL      0.124618
     91 H39         4.4850    7.1220   -2.4370 hn        1 MOL      0.354814
     92 H40         3.0440    8.1230   -2.6680 hn        1 MOL      0.354814
     93 N9          0.9910    3.4480    1.8350 n         1 MOL     -0.345137
     94 C30        -0.2270    2.6040    1.8480 c3        1 MOL      0.056068
     95 C31        -1.3160    3.1430    0.8910 c         1 MOL      0.353975
     96 O16        -1.8640    4.2170    1.0280 o         1 MOL     -0.541827
     97 C32        -0.6880    2.4220    3.3510 c3        1 MOL      0.365285
     98 C33        -1.6020    1.2740    3.6770 c3        1 MOL     -0.315583
     99 C34         0.4250    2.1990    4.4090 c3        1 MOL     -0.315583
    100 H41         0.9640    4.3800    2.2170 hn        1 MOL      0.244961
    101 H42         0.0160    1.5960    1.4970 h1        1 MOL      0.167932
    102 H43        -1.2500    3.3030    3.6670 hc        1 MOL     -0.091669
    103 H44        -2.4820    1.3100    3.0290 hc        1 MOL      0.057096
    104 H45        -1.0030    0.3690    3.5380 hc        1 MOL      0.057096
    105 H46        -1.9880    1.2960    4.6930 hc        1 MOL      0.057096
    106 H47        -0.0470    2.0930    5.3810 hc        1 MOL      0.057096
    107 H48         1.0090    1.3410    4.0710 hc        1 MOL      0.057096
    108 H49         1.0140    3.1180    4.4790 hc        1 MOL      0.057096
    109 N10        -1.6040    2.3390   -0.1560 n         1 MOL     -0.170547
    110 C35        -2.7670    2.4400   -1.0410 c3        1 MOL     -0.000432
    111 C36        -4.1130    1.9690   -0.3910 c         1 MOL      0.463066
    112 O17        -4.1430    1.2110    0.5480 o         1 MOL     -0.271050
    113 C37        -2.5160    1.5550   -2.2350 c3        1 MOL     -0.513129
    114 C38        -3.4990    1.8200   -3.3540 c         1 MOL      0.798421
    115 N11        -3.6330    2.9500   -3.9740 n         1 MOL     -0.802563
    116 O18        -4.2740    0.9480   -3.6790 o         1 MOL     -0.588164
    117 H50        -1.1610    1.4310   -0.1820 hn        1 MOL      0.149285
    118 H51        -2.8880    3.4820   -1.3220 h1        1 MOL      0.061599
    119 H52        -2.5740    0.5640   -1.7880 hc        1 MOL      0.192035
    120 H53        -1.4950    1.7340   -2.5700 hc        1 MOL      0.192035
    121 H54        -3.0710    3.7470   -3.7220 hn        1 MOL      0.357996
    122 H55        -4.3290    3.0320   -4.6970 hn        1 MOL      0.357996
    123 N12        -5.2770    2.4670   -1.0010 n         1 MOL     -0.601345
    124 C39        -6.6160    2.1490   -0.4700 c3        1 MOL      0.340811
    125 C40        -6.8110    0.5940   -0.2480 c         1 MOL      0.693222
    126 O19        -7.2160    0.2490    0.8370 o         1 MOL     -0.546071
    127 C41        -7.6610    2.5890   -1.4620 c3        1 MOL     -0.143978
    128 C42        -9.0730    2.4690   -0.9330 ca        1 MOL      0.016704
    129 C43        -9.4950    3.1750    0.2440 ca        1 MOL     -0.218506
    130 C44        -9.9860    1.5210   -1.4870 ca        1 MOL     -0.218506
    131 C45       -10.7260    2.9620    0.8170 ca        1 MOL     -0.150414
    132 C46       -11.2990    1.4040   -0.9570 ca        1 MOL     -0.150414
    133 C47       -11.6770    2.1090    0.2160 ca        1 MOL      0.206040
    134 O20       -12.7990    1.7760    0.8790 oh        1 MOL     -0.456627
    135 H56        -5.2850    3.0680   -1.8170 hn        1 MOL      0.254082
    136 H57        -6.7470    2.6270    0.4890 h1        1 MOL     -0.014818
    137 H58        -7.5810    1.9500   -2.3380 hc        1 MOL      0.053659
    138 H59        -7.5600    3.6270   -1.7710 hc        1 MOL      0.053659
    139 H60        -8.7910    3.8280    0.7330 ha        1 MOL      0.146470
    140 H61        -9.6800    0.9670   -2.3620 ha        1 MOL      0.146470
    141 H62       -10.9500    3.3380    1.8020 ha        1 MOL      0.117807
    142 H63       -12.0280    0.7960   -1.4740 ha        1 MOL      0.117807
    143 H64       -13.2470    1.0780    0.3980 ho        1 MOL      0.356045
    144 N13        -6.4640   -0.2460   -1.2080 n         1 MOL     -0.530370
    145 C48        -6.5180   -1.7400   -1.0880 c3        1 MOL      0.006041
    146 C49        -5.7650   -2.2970    0.1380 c         1 MOL      0.306566
    147 O21        -6.2010   -3.2240    0.8280 o         1 MOL     -0.489955
    148 C50        -6.1260   -2.4530   -2.4120 c3        1 MOL      0.015753
    149 C51        -6.2720   -3.9810   -2.2540 c3        1 MOL     -0.320621
    150 C52        -5.8170   -4.7000   -3.5030 c         1 MOL      0.719945
    151 O22        -6.6880   -4.9490   -4.3560 o         1 MOL     -0.739054
    152 O23        -4.5990   -4.9190   -3.7580 o         1 MOL     -0.739054
    153 H65        -6.0670    0.1070   -2.0710 hn        1 MOL      0.246242
    154 H66        -7.5360   -1.9510   -0.7630 h1        1 MOL      0.089422
    155 H67        -5.0850   -2.2560   -2.6680 hc        1 MOL      0.054271
    156 H68        -6.8560   -2.1190   -3.1500 hc        1 MOL      0.054271
    157 H69        -7.2740   -4.1430   -1.8500 hc        1 MOL      0.057418
    158 H70        -5.5950   -4.3400   -1.4810 hc        1 MOL      0.057418
    159 N14        -4.6430   -1.6150    0.4620 n         1 MOL     -0.088460
    160 C53        -3.7220   -2.0930    1.4940 c3        1 MOL     -0.119471
    161 C54        -4.2070   -1.6240    2.8240 c         1 MOL      0.417547
    162 O24        -3.9200   -2.3000    3.7770 o         1 MOL     -0.545100
    163 C55        -2.3140   -1.5100    1.1810 c3        1 MOL     -0.007623
    164 C56        -1.6040   -1.9830   -0.1380 c3        1 MOL     -0.040516
    165 C57        -0.2570   -1.2700   -0.3040 c         1 MOL      0.570334
    166 O25         0.7200   -1.9530   -0.6440 o         1 MOL     -0.614714
    167 O26        -0.1540   -0.0100   -0.3710 o         1 MOL     -0.614714
    168 H71        -4.3460   -0.7840   -0.0360 hn        1 MOL      0.163463
    169 H72        -3.7230   -3.1800    1.5140 h1        1 MOL      0.140822
    170 H73        -1.6720   -1.7570    2.0380 hc        1 MOL      0.013804
    171 H74        -2.3630   -0.4210    1.0950 hc        1 MOL      0.013804
    172 H75        -2.2560   -1.7080   -0.9630 hc        1 MOL      0.015069
    173 H76        -1.4200   -3.0510   -0.0630 hc        1 MOL      0.015069
    174 N15        -4.9280   -0.4520    2.8960 n         1 MOL      0.138556
    175 C58        -5.6040    0.1020    4.0220 c3        1 MOL     -0.358877
    176 H77        -4.9130    0.1720    4.8620 h1        1 MOL      0.104521
    177 H78        -5.9730    1.0970    3.7710 h1        1 MOL      0.104521
    178 H79        -6.4430   -0.5380    4.2950 h1        1 MOL      0.104521
    179 H80        -5.1120   -0.0070    2.0020 hn        1 MOL     -0.081368
    180 Ca1         2.3380   -0.0020   -1.2720 Ca        1 MOL      1.654645
    181 O27         1.3990    2.4740   -2.1100 oh        1 MOL     -0.806421
    182 H81         1.6360    2.5220   -3.0330 ho        1 MOL      0.390584
    183 H82         1.8240    3.2320   -1.7070 ho        1 MOL      0.390584
    184 O28         0.7800   -0.7690   -3.3940 oh        1 MOL     -0.806421
    185 H83        -0.1200   -0.8690   -3.7210 ho        1 MOL      0.390584
    186 H84         1.2870   -1.4010   -3.9040 ho        1 MOL      0.390584
@<TRIPOS>BOND
     1    1    2 1   
     2    1    4 1   
     3    1    5 1   
     4    1    6 1   
     5    2    3 2   
     6    2    7 1   
     7    7    8 1   
     8    7   15 1   
     9    8    9 1   
    10    8   11 1   
    11    8   16 1   
    12    9   10 2   
    13    9   19 1   
    14   11   12 1   
    15   11   17 1   
    16   11   18 1   
    17   12   13 1   
    18   12   14 1   
    19   19   20 1   
    20   19   27 1   
    21   20   21 1   
    22   20   23 1   
    23   20   28 1   
    24   21   22 2   
    25   21   38 1   
    26   23   24 1   
    27   23   25 1   
    28   23   29 1   
    29   24   26 1   
    30   24   30 1   
    31   24   31 1   
    32   25   32 1   
    33   25   33 1   
    34   25   34 1   
    35   26   35 1   
    36   26   36 1   
    37   26   37 1   
    38   38   39 1   
    39   38   46 1   
    40   39   40 1   
    41   39   42 1   
    42   39   47 1   
    43   40   41 2   
    44   40   50 1   
    45   42   43 1   
    46   42   48 1   
    47   42   49 1   
    48   43   44 1   
    49   43   45 1   
    50   50   51 1   
    51   50   54 1   
    52   51   52 1   
    53   51   55 1   
    54   51   56 1   
    55   52   53 2   
    56   52   57 1   
    57   57   58 1   
    58   57   65 1   
    59   58   59 1   
    60   58   61 1   
    61   58   66 1   
    62   59   60 2   
    63   59   69 1   
    64   61   62 1   
    65   61   67 1   
    66   61   68 1   
    67   62   63 1   
    68   62   64 1   
    69   69   70 1   
    70   69   73 1   
    71   70   71 1   
    72   70   74 1   
    73   70   75 1   
    74   71   72 2   
    75   71   76 1   
    76   76   77 1   
    77   76   85 1   
    78   77   78 1   
    79   77   80 1   
    80   77   86 1   
    81   78   79 2   
    82   78   93 1   
    83   80   81 1   
    84   80   87 1   
    85   80   88 1   
    86   81   82 1   
    87   81   89 1   
    88   81   90 1   
    89   82   83 1   
    90   82   84 2   
    91   83   91 1   
    92   83   92 1   
    93   93   94 1   
    94   93  100 1   
    95   94   95 1   
    96   94   97 1   
    97   94  101 1   
    98   95   96 2   
    99   95  109 1   
   100   97   98 1   
   101   97   99 1   
   102   97  102 1   
   103   98  103 1   
   104   98  104 1   
   105   98  105 1   
   106   99  106 1   
   107   99  107 1   
   108   99  108 1   
   109  109  110 1   
   110  109  117 1   
   111  110  111 1   
   112  110  113 1   
   113  110  118 1   
   114  111  112 2   
   115  111  123 1   
   116  113  114 1   
   117  113  119 1   
   118  113  120 1   
   119  114  115 1   
   120  114  116 2   
   121  115  121 1   
   122  115  122 1   
   123  123  124 1   
   124  123  135 1   
   125  124  125 1   
   126  124  127 1   
   127  124  136 1   
   128  125  126 2   
   129  125  144 1   
   130  127  128 1   
   131  127  137 1   
   132  127  138 1   
   133  128  129 ar  
   134  128  130 ar  
   135  129  131 ar  
   136  129  139 1   
   137  130  132 ar  
   138  130  140 1   
   139  131  133 ar  
   140  131  141 1   
   141  132  133 ar  
   142  132  142 1   
   143  133  134 1   
   144  134  143 1   
   145  144  145 1   
   146  144  153 1   
   147  145  146 1   
   148  145  148 1   
   149  145  154 1   
   150  146  147 2   
   151  146  159 1   
   152  148  149 1   
   153  148  155 1   
   154  148  156 1   
   155  149  150 1   
   156  149  157 1   
   157  149  158 1   
   158  150  151 1   
   159  150  152 1   
   160  159  160 1   
   161  159  168 1   
   162  160  161 1   
   163  160  163 1   
   164  160  169 1   
   165  161  162 2   
   166  161  174 1   
   167  163  164 1   
   168  163  170 1   
   169  163  171 1   
   170  164  165 1   
   171  164  172 1   
   172  164  173 1   
   173  165  166 1   
   174  165  167 1   
   175  174  175 1   
   176  174  179 1   
   177  175  176 1   
   178  175  177 1   
   179  175  178 1   
   180  181  182 1   
   181  181  183 1   
   182  184  185 1   
   183  184  186 1   
@<TRIPOS>SUBSTRUCTURE
     1 MOL         1 TEMP              0 ****  ****    0 ROOT
