@<TRIPOS>MOLECULE
MOL
  189   185     1     0     0
SMALL
resp


@<TRIPOS>ATOM
      1 C1          0.9760   -4.7970    5.4590 c3        1 MOL     -0.418971
      2 C2          1.3030   -4.5350    3.9550 c         1 MOL      0.736836
      3 O1          0.3930   -4.2740    3.1380 o         1 MOL     -0.579122
      4 H1          1.7160   -5.4800    5.8770 hc        1 MOL      0.097957
      5 H2          1.0010   -3.8550    6.0070 hc        1 MOL      0.097957
      6 H3         -0.0160   -5.2420    5.5440 hc        1 MOL      0.097957
      7 N1          2.5560   -4.3860    3.6130 n         1 MOL     -0.667947
      8 C3          3.0850   -3.8380    2.4040 c3        1 MOL      0.388064
      9 C4          3.1010   -4.8800    1.2240 c         1 MOL      0.410088
     10 O2          3.8090   -5.9100    1.2770 o         1 MOL     -0.587737
     11 C5          4.4700   -3.2230    2.7820 c3        1 MOL     -0.266619
     12 C6          4.9670   -2.2450    1.7430 c         1 MOL      0.810179
     13 O3          4.1100   -2.0100    0.8310 o         1 MOL     -0.713196
     14 O4          5.9350   -1.5140    1.8810 o         1 MOL     -0.713196
     15 H4          3.2430   -4.5030    4.3520 hn        1 MOL      0.305616
     16 H5          2.4350   -3.0120    2.1170 h1        1 MOL      0.042006
     17 H6          5.1650   -4.0520    2.9260 hc        1 MOL      0.022620
     18 H7          4.4350   -2.7090    3.7470 hc        1 MOL      0.022620
     19 N2          2.4350   -4.5320    0.1160 n         1 MOL     -0.261283
     20 C7          2.2820   -5.5050   -1.0060 c3        1 MOL      0.367581
     21 C8          3.2670   -5.1290   -2.1650 c         1 MOL      0.333888
     22 O5          3.7450   -6.0150   -2.8820 o         1 MOL     -0.575362
     23 C9          0.7850   -5.5980   -1.4780 c3        1 MOL      0.029313
     24 C10        -0.1720   -6.1160   -0.3060 c3        1 MOL      0.041081
     25 C11         0.7020   -6.5200   -2.7630 c3        1 MOL     -0.287691
     26 C12         0.0450   -7.5310    0.2270 c3        1 MOL     -0.219074
     27 H8          1.8400   -3.7160    0.1460 hn        1 MOL      0.052868
     28 H9          2.6330   -6.4400   -0.5830 h1        1 MOL     -0.025977
     29 H10         0.6140   -4.5500   -1.6910 hc        1 MOL      0.003096
     30 H11        -1.1930   -6.2030   -0.6850 hc        1 MOL      0.015595
     31 H12        -0.2450   -5.4120    0.5250 hc        1 MOL      0.015595
     32 H13        -0.3220   -6.8260   -2.9440 hc        1 MOL      0.072352
     33 H14         0.9840   -5.8970   -3.6130 hc        1 MOL      0.072352
     34 H15         1.3560   -7.3900   -2.7210 hc        1 MOL      0.072352
     35 H16        -0.8260   -7.7840    0.8300 hc        1 MOL      0.041464
     36 H17         0.3380   -8.2890   -0.4950 hc        1 MOL      0.041464
     37 H18         0.7760   -7.4200    1.0310 hc        1 MOL      0.041464
     38 N3          3.6610   -3.8590   -2.2730 n         1 MOL     -0.160474
     39 C13         4.2590   -3.2060   -3.4350 c3        1 MOL      0.048836
     40 C14         5.5330   -2.3820   -3.0220 c         1 MOL      0.400205
     41 O6          6.2350   -1.8760   -3.9280 o         1 MOL     -0.549464
     42 C15         3.1920   -2.2380   -4.1370 c3        1 MOL     -0.153266
     43 C16         2.3810   -1.3250   -3.1470 c         1 MOL      0.795310
     44 O7          2.6260   -1.2520   -1.9710 o         1 MOL     -0.728196
     45 O8          1.4100   -0.6280   -3.5990 o         1 MOL     -0.728196
     46 H19         3.4300   -3.2200   -1.5280 hn        1 MOL      0.101175
     47 H20         4.5300   -4.0230   -4.0980 h1        1 MOL      0.070527
     48 H21         2.4880   -2.7850   -4.7510 hc        1 MOL      0.033080
     49 H22         3.6660   -1.5680   -4.8580 hc        1 MOL      0.033080
     50 N4          5.9030   -2.3240   -1.7430 n         1 MOL     -0.226192
     51 C17         7.2150   -1.7700   -1.3850 c3        1 MOL     -0.299865
     52 C18         7.3970   -0.2270   -1.5360 c         1 MOL      0.566261
     53 O9          8.4340    0.3600   -1.1710 o         1 MOL     -0.601004
     54 H23         5.4180   -2.9070   -1.0750 hn        1 MOL      0.211779
     55 H24         7.9390   -2.2130   -2.0750 h1        1 MOL      0.140608
     56 H25         7.4790   -2.0470   -0.3660 h1        1 MOL      0.140608
     57 N5          6.3480    0.4630   -2.0620 n         1 MOL     -0.316331
     58 C19         6.3880    1.8910   -2.5360 c3        1 MOL      0.106808
     59 C20         6.7660    2.9130   -1.4900 c         1 MOL      0.504899
     60 O10         7.4180    3.9040   -1.8130 o         1 MOL     -0.602721
     61 C21         5.0110    2.2750   -3.1930 c3        1 MOL     -0.291118
     62 C22         3.8250    2.2220   -2.2870 c         1 MOL      0.785860
     63 O11         3.8360    1.5800   -1.2110 o         1 MOL     -0.703697
     64 O12         2.7630    2.8160   -2.6600 o         1 MOL     -0.703697
     65 H26         5.5010   -0.0730   -2.1830 hn        1 MOL      0.225400
     66 H27         7.2220    2.0890   -3.1960 h1        1 MOL      0.041683
     67 H28         4.8160    1.6850   -4.0920 hc        1 MOL      0.077021
     68 H29         5.1690    3.2920   -3.5520 hc        1 MOL      0.077021
     69 N6          6.4330    2.7620   -0.2220 n         1 MOL     -0.161372
     70 C23         6.5940    3.6840    0.8530 c3        1 MOL     -0.178599
     71 C24         5.3280    4.3900    1.2520 c         1 MOL      0.497955
     72 O13         5.5370    5.2130    2.1400 o         1 MOL     -0.589135
     73 H30         5.8410    1.9830    0.0400 hn        1 MOL      0.193853
     74 H31         7.4310    4.3670    0.7160 h1        1 MOL      0.094975
     75 H32         6.8600    3.0630    1.7130 h1        1 MOL      0.094975
     76 N7          4.1330    4.0240    0.7670 n         1 MOL     -0.254165
     77 C25         2.9470    4.6600    1.3220 c3        1 MOL      0.093264
     78 C26         1.8260    3.5650    1.5010 c         1 MOL      0.502840
     79 O14         1.8990    2.5160    0.8850 o         1 MOL     -0.469609
     80 C27         2.3950    5.8180    0.4340 c3        1 MOL     -0.147040
     81 C28         3.4490    6.8480    0.1120 c3        1 MOL      0.006532
     82 C29         2.8420    8.2750   -0.2290 c         1 MOL      0.543604
     83 N8          3.7050    9.2350   -0.5460 n         1 MOL     -0.750398
     84 O15         1.6180    8.4110   -0.1560 o         1 MOL     -0.547547
     85 H33         4.0170    3.3220    0.0570 hn        1 MOL      0.146607
     86 H34         3.1840    5.1190    2.2820 h1        1 MOL      0.017099
     87 H35         1.6080    6.2490    1.0510 hc        1 MOL      0.066447
     88 H36         1.9810    5.4660   -0.5080 hc        1 MOL      0.066447
     89 H37         4.0630    6.5090   -0.7140 hc        1 MOL      0.035095
     90 H38         4.0880    7.0040    0.9760 hc        1 MOL      0.035095
     91 H39         4.6990    9.0820   -0.4610 hn        1 MOL      0.347760
     92 H40         3.2190   10.1170   -0.6110 hn        1 MOL      0.347760
     93 N9          0.8200    3.8470    2.3250 n         1 MOL     -0.661621
     94 C30        -0.2500    2.9000    2.6420 c3        1 MOL      0.168328
     95 C31        -1.5260    3.2800    1.8590 c         1 MOL      0.627353
     96 O16        -1.9690    4.4160    1.7610 o         1 MOL     -0.607869
     97 C32        -0.6210    2.7200    4.1850 c3        1 MOL      0.168884
     98 C33        -1.0410    3.9690    4.9360 c3        1 MOL     -0.185828
     99 C34        -1.6660    1.6210    4.3340 c3        1 MOL     -0.185828
    100 H41         0.7500    4.7940    2.6670 hn        1 MOL      0.362236
    101 H42         0.0420    1.9120    2.2790 h1        1 MOL      0.089447
    102 H43         0.3150    2.3470    4.6060 hc        1 MOL     -0.029830
    103 H44        -0.1860    4.6280    5.0250 hc        1 MOL      0.029512
    104 H45        -1.6920    4.5590    4.2950 hc        1 MOL      0.029512
    105 H46        -1.5230    3.7520    5.8930 hc        1 MOL      0.029512
    106 H47        -1.4650    0.7970    3.6430 hc        1 MOL      0.029512
    107 H48        -1.5550    1.3260    5.3770 hc        1 MOL      0.029512
    108 H49        -2.6590    1.9920    4.0760 hc        1 MOL      0.029512
    109 N10        -2.0450    2.3050    1.1190 n         1 MOL     -0.346256
    110 C35        -3.2110    2.3140    0.1770 c3        1 MOL      0.414637
    111 C36        -4.4950    1.8410    0.9380 c         1 MOL      0.039911
    112 O17        -4.4470    1.0720    1.9260 o         1 MOL     -0.269668
    113 C37        -2.9370    1.5840   -1.0840 c3        1 MOL     -0.575063
    114 C38        -4.0660    1.4400   -2.0940 c         1 MOL      0.757882
    115 N11        -4.7220    2.4920   -2.3950 n         1 MOL     -0.725063
    116 O18        -4.4220    0.3670   -2.5280 o         1 MOL     -0.490490
    117 H50        -1.5820    1.4110    1.0920 hn        1 MOL      0.058254
    118 H51        -3.4480    3.3510   -0.0460 h1        1 MOL     -0.018241
    119 H52        -2.4210    0.6400   -0.9160 hc        1 MOL      0.198464
    120 H53        -2.2020    2.2300   -1.5660 hc        1 MOL      0.198464
    121 H54        -4.4640    3.3110   -1.8690 hn        1 MOL      0.318453
    122 H55        -5.6770    2.4960   -2.7290 hn        1 MOL      0.318453
    123 N12        -5.7140    2.1770    0.4160 n         1 MOL     -0.037212
    124 C39        -6.9260    1.6490    0.9990 c3        1 MOL     -0.064537
    125 C40        -7.1460    0.0950    0.8250 c         1 MOL      0.577029
    126 O19        -7.9080   -0.4890    1.6100 o         1 MOL     -0.586687
    127 C41        -8.0580    2.5040    0.3860 c3        1 MOL     -0.139603
    128 C42        -8.2570    2.7060   -1.0960 ca        1 MOL     -0.084115
    129 C43        -8.7380    1.6610   -1.8940 ca        1 MOL     -0.025567
    130 C44        -7.7230    3.8170   -1.7310 ca        1 MOL     -0.025567
    131 C45        -8.6610    1.7490   -3.3400 ca        1 MOL     -0.427180
    132 C46        -7.6560    3.9340   -3.1270 ca        1 MOL     -0.427180
    133 C47        -8.0810    2.8730   -3.9170 ca        1 MOL      0.545798
    134 O20        -7.9390    2.8320   -5.2580 oh        1 MOL     -0.582542
    135 H56        -5.7150    2.8910   -0.3040 hn        1 MOL      0.102501
    136 H57        -6.9100    1.8010    2.0810 h1        1 MOL      0.084011
    137 H58        -7.8740    3.4890    0.7930 hc        1 MOL      0.051088
    138 H59        -8.9890    2.1140    0.7770 hc        1 MOL      0.051088
    139 H60        -9.0270    0.7640   -1.3800 ha        1 MOL      0.108980
    140 H61        -7.2820    4.6290   -1.1750 ha        1 MOL      0.108980
    141 H62        -9.1280    0.9740   -3.9260 ha        1 MOL      0.178398
    142 H63        -7.1990    4.7900   -3.6030 ha        1 MOL      0.178398
    143 H64        -8.2080    1.9850   -5.6310 ho        1 MOL      0.429082
    144 N13        -6.4610   -0.4940   -0.1380 n         1 MOL     -0.038190
    145 C48        -6.5430   -1.9180   -0.1910 c3        1 MOL     -0.505413
    146 C49        -5.6160   -2.7080    0.8670 c         1 MOL      0.524571
    147 O21        -5.8720   -3.8900    1.1300 o         1 MOL     -0.524997
    148 C50        -6.1200   -2.4370   -1.5450 c3        1 MOL      0.462766
    149 C51        -7.0150   -2.0000   -2.6980 c3        1 MOL     -0.349543
    150 C52        -6.5270   -2.5610   -3.9800 c         1 MOL      0.712359
    151 O22        -6.0840   -3.7310   -3.9910 o         1 MOL     -0.728614
    152 O23        -6.4750   -1.8440   -4.9940 o         1 MOL     -0.728614
    153 H65        -6.0470    0.0400   -0.8780 hn        1 MOL      0.148463
    154 H66        -7.5630   -2.2380    0.0230 h1        1 MOL      0.163401
    155 H67        -6.0920   -3.5200   -1.4650 hc        1 MOL     -0.050916
    156 H68        -5.0710   -2.1940   -1.7200 hc        1 MOL     -0.050916
    157 H69        -6.9100   -0.9240   -2.8520 hc        1 MOL      0.043145
    158 H70        -8.0580   -2.2760   -2.5250 hc        1 MOL      0.043145
    159 N14        -4.6500   -2.0120    1.5420 n         1 MOL     -0.256848
    160 C53        -3.7370   -2.4620    2.5430 c3        1 MOL     -0.071412
    161 C54        -4.1270   -2.0470    3.8940 c         1 MOL      0.439967
    162 O24        -3.7530   -2.7480    4.8170 o         1 MOL     -0.542505
    163 C55        -2.3470   -1.8550    2.2010 c3        1 MOL      0.087397
    164 C56        -1.5980   -2.3390    0.9430 c3        1 MOL     -0.103148
    165 C57        -0.1900   -1.6470    0.7400 c         1 MOL      0.447487
    166 O25        -0.0440   -0.4260    1.0150 o         1 MOL     -0.493481
    167 O26         0.7790   -2.2270    0.1310 o         1 MOL     -0.493481
    168 H71        -4.6450   -1.0350    1.2640 hn        1 MOL      0.119416
    169 H72        -3.7100   -3.5510    2.6110 h1        1 MOL      0.125166
    170 H73        -1.6620   -2.0200    3.0390 hc        1 MOL      0.015454
    171 H74        -2.4860   -0.7850    2.0220 hc        1 MOL      0.015454
    172 H75        -2.2260   -2.1160    0.0730 hc        1 MOL      0.045372
    173 H76        -1.4950   -3.4120    1.0810 hc        1 MOL      0.045372
    174 N15        -4.9690   -0.9970    4.0800 n         1 MOL     -0.183851
    175 C58        -5.2930   -0.3620    5.4110 c3        1 MOL     -0.147643
    176 H77        -5.8690    0.5490    5.2480 h1        1 MOL      0.072373
    177 H78        -5.8760   -1.0570    6.0140 h1        1 MOL      0.072373
    178 H79        -4.3670   -0.1170    5.9330 h1        1 MOL      0.072373
    179 H80        -5.1740   -0.3800    3.3080 hn        1 MOL      0.105398
    180 Ca1         2.4090   -0.0610    0.3370 Ca        1 MOL      1.657349
    181 O27         4.8110    0.8650    1.7180 oh        1 MOL     -0.897823
    182 H81         5.1860    1.3890    2.4240 ho        1 MOL      0.420404
    183 H82         5.1800   -0.0160    1.8580 ho        1 MOL      0.420404
    184 O28         2.2170   -0.1840    3.0870 oh        1 MOL     -0.897823
    185 H83         3.0750   -0.0640    3.4850 ho        1 MOL      0.420404
    186 H84         1.6310   -0.3290    3.8290 ho        1 MOL      0.420404
    187 O29         0.9550    1.1850   -1.4940 oh        1 MOL     -0.897823
    188 H85         1.0510    0.8210   -2.3770 ho        1 MOL      0.420404
    189 H86         1.5920    1.8980   -1.4600 ho        1 MOL      0.420404
@<TRIPOS>BOND
     1    1    2 1   
     2    1    4 1   
     3    1    5 1   
     4    1    6 1   
     5    2    3 2   
     6    2    7 1   
     7    7    8 1   
     8    7   15 1   
     9    8    9 1   
    10    8   11 1   
    11    8   16 1   
    12    9   10 2   
    13    9   19 1   
    14   11   12 1   
    15   11   17 1   
    16   11   18 1   
    17   12   13 1   
    18   12   14 1   
    19   19   20 1   
    20   19   27 1   
    21   20   21 1   
    22   20   23 1   
    23   20   28 1   
    24   21   22 2   
    25   21   38 1   
    26   23   24 1   
    27   23   25 1   
    28   23   29 1   
    29   24   26 1   
    30   24   30 1   
    31   24   31 1   
    32   25   32 1   
    33   25   33 1   
    34   25   34 1   
    35   26   35 1   
    36   26   36 1   
    37   26   37 1   
    38   38   39 1   
    39   38   46 1   
    40   39   40 1   
    41   39   42 1   
    42   39   47 1   
    43   40   41 2   
    44   40   50 1   
    45   42   43 1   
    46   42   48 1   
    47   42   49 1   
    48   43   44 1   
    49   43   45 1   
    50   50   51 1   
    51   50   54 1   
    52   51   52 1   
    53   51   55 1   
    54   51   56 1   
    55   52   53 2   
    56   52   57 1   
    57   57   58 1   
    58   57   65 1   
    59   58   59 1   
    60   58   61 1   
    61   58   66 1   
    62   59   60 2   
    63   59   69 1   
    64   61   62 1   
    65   61   67 1   
    66   61   68 1   
    67   62   63 1   
    68   62   64 1   
    69   69   70 1   
    70   69   73 1   
    71   70   71 1   
    72   70   74 1   
    73   70   75 1   
    74   71   72 2   
    75   71   76 1   
    76   76   77 1   
    77   76   85 1   
    78   77   78 1   
    79   77   80 1   
    80   77   86 1   
    81   78   79 2   
    82   78   93 1   
    83   80   81 1   
    84   80   87 1   
    85   80   88 1   
    86   81   82 1   
    87   81   89 1   
    88   81   90 1   
    89   82   83 1   
    90   82   84 2   
    91   83   91 1   
    92   83   92 1   
    93   93   94 1   
    94   93  100 1   
    95   94   95 1   
    96   94   97 1   
    97   94  101 1   
    98   95   96 2   
    99   95  109 1   
   100   97   98 1   
   101   97   99 1   
   102   97  102 1   
   103   98  103 1   
   104   98  104 1   
   105   98  105 1   
   106   99  106 1   
   107   99  107 1   
   108   99  108 1   
   109  109  110 1   
   110  109  117 1   
   111  110  111 1   
   112  110  113 1   
   113  110  118 1   
   114  111  112 2   
   115  111  123 1   
   116  113  114 1   
   117  113  119 1   
   118  113  120 1   
   119  114  115 1   
   120  114  116 2   
   121  115  121 1   
   122  115  122 1   
   123  123  124 1   
   124  123  135 1   
   125  124  125 1   
   126  124  127 1   
   127  124  136 1   
   128  125  126 2   
   129  125  144 1   
   130  127  128 1   
   131  127  137 1   
   132  127  138 1   
   133  128  129 ar  
   134  128  130 ar  
   135  129  131 ar  
   136  129  139 1   
   137  130  132 ar  
   138  130  140 1   
   139  131  133 ar  
   140  131  141 1   
   141  132  133 ar  
   142  132  142 1   
   143  133  134 1   
   144  134  143 1   
   145  144  145 1   
   146  144  153 1   
   147  145  146 1   
   148  145  148 1   
   149  145  154 1   
   150  146  147 2   
   151  146  159 1   
   152  148  149 1   
   153  148  155 1   
   154  148  156 1   
   155  149  150 1   
   156  149  157 1   
   157  149  158 1   
   158  150  151 1   
   159  150  152 1   
   160  159  160 1   
   161  159  168 1   
   162  160  161 1   
   163  160  163 1   
   164  160  169 1   
   165  161  162 2   
   166  161  174 1   
   167  163  164 1   
   168  163  170 1   
   169  163  171 1   
   170  164  165 1   
   171  164  172 1   
   172  164  173 1   
   173  165  166 1   
   174  165  167 1   
   175  174  175 1   
   176  174  179 1   
   177  175  176 1   
   178  175  177 1   
   179  175  178 1   
   180  181  182 1   
   181  181  183 1   
   182  184  185 1   
   183  184  186 1   
   184  187  188 1   
   185  187  189 1   
@<TRIPOS>SUBSTRUCTURE
     1 MOL         1 TEMP              0 ****  ****    0 ROOT
