@<TRIPOS>MOLECULE
MOL
  189   185     1     0     0
SMALL
resp


@<TRIPOS>ATOM
      1 C1         -0.6620    0.9170    7.0070 c3        1 MOL     -0.381382
      2 C2         -0.9110    1.2330    5.4870 c         1 MOL      0.686067
      3 O1         -0.0540    1.8980    4.8800 o         1 MOL     -0.588536
      4 H1          0.2110    0.2700    7.1050 hc        1 MOL      0.097863
      5 H2         -0.4860    1.8460    7.5490 hc        1 MOL      0.097863
      6 H3         -1.5340    0.4120    7.4230 hc        1 MOL      0.097863
      7 N1         -2.0110    0.7240    4.9010 n         1 MOL     -0.601017
      8 C3         -2.2990    0.8580    3.4630 c3        1 MOL      0.143669
      9 C4         -2.5740    2.3660    3.2140 c         1 MOL      0.613190
     10 O2         -3.5340    2.9180    3.7900 o         1 MOL     -0.583937
     11 C5         -3.3830   -0.1510    3.1220 c3        1 MOL     -0.311255
     12 C6         -3.8720   -0.1490    1.6570 c         1 MOL      0.925511
     13 O3         -4.8470   -0.8520    1.3010 o         1 MOL     -0.768214
     14 O4         -3.2320    0.5500    0.8510 o         1 MOL     -0.768214
     15 H4         -2.5710    0.1000    5.4700 hn        1 MOL      0.336911
     16 H5         -1.3970    0.5760    2.9220 h1        1 MOL      0.033425
     17 H6         -4.2100    0.0190    3.7990 hc        1 MOL      0.059673
     18 H7         -2.9430   -1.1440    3.2220 hc        1 MOL      0.059673
     19 N2         -1.8320    2.9510    2.3040 n         1 MOL     -0.367614
     20 C7         -2.1420    4.3310    1.9230 c3        1 MOL     -0.020370
     21 C8         -3.3210    4.5780    0.9100 c         1 MOL      0.429387
     22 O5         -3.8690    5.7110    0.8610 o         1 MOL     -0.568404
     23 C9         -0.8820    5.1030    1.6560 c3        1 MOL     -0.089330
     24 C10        -0.4180    4.8300    0.2720 c3        1 MOL      0.158080
     25 C11        -0.4600    6.1720   -0.5420 c3        1 MOL     -0.257637
     26 C12         0.1700    5.8640   -1.8800 c3        1 MOL      0.193458
     27 N3          0.1240    7.0780   -2.7390 n4        1 MOL     -0.388652
     28 H8         -1.2300    2.3680    1.7510 hn        1 MOL      0.205491
     29 H9         -2.4890    4.8360    2.8250 h1        1 MOL      0.119959
     30 H10        -0.0080    4.8840    2.2600 hc        1 MOL      0.046453
     31 H11        -1.1450    6.1620    1.7610 hc        1 MOL      0.046453
     32 H12        -1.1620    4.1690   -0.1820 hc        1 MOL      0.015796
     33 H13         0.5720    4.3790    0.1790 hc        1 MOL      0.015796
     34 H14         0.1030    6.9080    0.0260 hc        1 MOL      0.067818
     35 H15        -1.4950    6.4690   -0.7000 hc        1 MOL      0.067818
     36 H16        -0.4420    5.1200   -2.3950 hx        1 MOL      0.040804
     37 H17         1.2170    5.5840   -1.7900 hx        1 MOL      0.040804
     38 H18        -0.7880    7.4920   -2.8630 hn        1 MOL      0.321875
     39 H19         0.6610    7.7670   -2.2300 hn        1 MOL      0.321875
     40 H20         0.4170    6.9200   -3.6940 hn        1 MOL      0.321875
     41 N4         -3.7970    3.6030    0.1200 n         1 MOL     -0.219034
     42 C13        -4.8560    3.8790   -0.8660 c3        1 MOL      0.104835
     43 C14        -6.0800    2.9300   -0.6450 c         1 MOL      0.391193
     44 O6         -7.1260    3.1510   -1.2830 o         1 MOL     -0.508460
     45 C15        -4.3290    3.9320   -2.3070 c3        1 MOL     -0.431375
     46 C16        -3.5340    2.7070   -2.7100 c         1 MOL      0.948183
     47 O7         -3.0200    2.6500   -3.8460 o         1 MOL     -0.754535
     48 O8         -3.3480    1.8210   -1.8820 o         1 MOL     -0.754535
     49 H21        -3.2500    2.7600    0.0760 hn        1 MOL      0.149222
     50 H22        -5.2980    4.8590   -0.6770 h1        1 MOL      0.106379
     51 H23        -3.6730    4.7960   -2.4350 hc        1 MOL      0.098766
     52 H24        -5.1300    4.0360   -3.0380 hc        1 MOL      0.098766
     53 N5         -6.0120    2.0610    0.3690 n         1 MOL     -0.240813
     54 C17        -7.0670    1.1410    0.7090 c3        1 MOL     -0.193224
     55 C18        -7.4750    0.1680   -0.3690 c         1 MOL      0.502688
     56 O9         -8.6410   -0.1290   -0.5100 o         1 MOL     -0.560938
     57 H25        -5.1160    1.9220    0.8360 hn        1 MOL      0.198034
     58 H26        -7.9070    1.7780    0.9830 h1        1 MOL      0.116714
     59 H27        -6.7790    0.5720    1.5940 h1        1 MOL      0.116714
     60 N6         -6.5250   -0.3690   -1.1790 n         1 MOL     -0.250218
     61 C19        -6.5790   -1.3810   -2.2070 c3        1 MOL     -0.024808
     62 C20        -6.5480   -2.7990   -1.5180 c         1 MOL      0.442278
     63 O10        -6.7860   -3.7230   -2.2620 o         1 MOL     -0.509557
     64 C21        -5.4870   -1.2170   -3.2470 c3        1 MOL     -0.242812
     65 C22        -4.1010   -1.0830   -2.7370 c         1 MOL      0.723194
     66 O11        -3.2230   -0.5550   -3.4850 o         1 MOL     -0.686359
     67 O12        -3.8020   -1.5520   -1.6030 o         1 MOL     -0.686359
     68 H28        -5.5920   -0.0160   -1.0270 hn        1 MOL      0.264282
     69 H29        -7.5240   -1.4390   -2.7440 h1        1 MOL      0.122187
     70 H30        -5.6800   -0.2700   -3.7410 hc        1 MOL      0.081212
     71 H31        -5.5900   -2.0240   -3.9750 hc        1 MOL      0.081212
     72 N7         -6.4300   -3.0050   -0.1830 n         1 MOL     -0.314309
     73 C23        -6.2320   -4.3900    0.3810 c3        1 MOL     -0.143371
     74 C24        -4.8010   -4.9380    0.2170 c         1 MOL      0.488986
     75 O13        -4.5670   -6.1610    0.2930 o         1 MOL     -0.559825
     76 H32        -6.4690   -2.2020    0.4230 hn        1 MOL      0.309289
     77 H33        -6.8240   -5.2020   -0.0240 h1        1 MOL      0.104297
     78 H34        -6.3660   -4.3130    1.4640 h1        1 MOL      0.104297
     79 N8         -3.8700   -4.1010   -0.2920 n         1 MOL     -0.155680
     80 C25        -2.3900   -4.4530   -0.5520 c3        1 MOL     -0.307755
     81 C26        -1.4090   -3.4540   -0.0540 c         1 MOL      0.753430
     82 O14        -1.6250   -2.2600   -0.1710 o         1 MOL     -0.658181
     83 C27        -2.1250   -4.7150   -2.0650 c3        1 MOL      0.506359
     84 C28        -2.5750   -6.1200   -2.4690 c3        1 MOL     -0.544016
     85 O15        -2.8200   -3.7340   -2.8530 oh        1 MOL     -0.617273
     86 H35        -4.1060   -3.1300   -0.3350 hn        1 MOL      0.219463
     87 H36        -2.0440   -5.4170   -0.1710 h1        1 MOL      0.115184
     88 H37        -1.0750   -4.6550   -2.3560 h1        1 MOL     -0.007054
     89 H38        -3.5360   -3.3480   -2.3390 ho        1 MOL      0.383608
     90 H39        -2.0110   -6.9200   -2.0010 hc        1 MOL      0.140827
     91 H40        -3.6090   -6.3090   -2.1930 hc        1 MOL      0.140827
     92 H41        -2.3500   -6.2000   -3.5300 hc        1 MOL      0.140827
     93 N9         -0.2780   -3.9720    0.4650 n         1 MOL     -0.722679
     94 C29         0.7910   -3.0780    0.9370 c3        1 MOL      0.196474
     95 C30         1.9890   -3.3140   -0.0140 c         1 MOL      0.465020
     96 O16         2.4070   -4.4750   -0.2680 o         1 MOL     -0.553318
     97 C31         1.1180   -3.3830    2.3750 c3        1 MOL      0.078866
     98 C32        -0.0010   -2.9540    3.3080 c3        1 MOL      0.156627
     99 C33         2.4270   -2.7250    2.8580 c3        1 MOL     -0.511992
    100 C34         0.1040   -3.6290    4.6900 c3        1 MOL     -0.196896
    101 H42        -0.1190   -4.9650    0.4950 hn        1 MOL      0.360299
    102 H43         0.5130   -2.0270    0.9780 h1        1 MOL     -0.008954
    103 H44         1.1200   -4.4700    2.3860 hc        1 MOL      0.020408
    104 H45        -0.9380   -3.2110    2.8040 hc        1 MOL     -0.003491
    105 H46         0.0080   -1.8780    3.4770 hc        1 MOL     -0.003491
    106 H47         2.7570   -3.0680    3.8350 hc        1 MOL      0.122414
    107 H48         3.2050   -2.8750    2.1140 hc        1 MOL      0.122414
    108 H49         2.3430   -1.6500    3.0340 hc        1 MOL      0.122414
    109 H50         1.0910   -3.5250    5.1260 hc        1 MOL      0.041292
    110 H51        -0.7470   -3.2550    5.2750 hc        1 MOL      0.041292
    111 H52        -0.0010   -4.7070    4.6560 hc        1 MOL      0.041292
    112 N10         2.5260   -2.2000   -0.4870 n         1 MOL     -0.183326
    113 C35         3.7610   -2.1290   -1.2800 c3        1 MOL     -0.070547
    114 C36         4.9740   -2.1150   -0.3210 c         1 MOL      0.396440
    115 O17         4.8360   -1.6580    0.8190 o         1 MOL     -0.301630
    116 C37         3.9340   -0.9360   -2.2290 c3        1 MOL      0.234309
    117 C38         2.9770   -1.0650   -3.4530 c3        1 MOL     -0.479266
    118 O18         3.6190    0.2370   -1.6110 oh        1 MOL     -0.569076
    119 H53         2.1290   -1.3080   -0.2130 hn        1 MOL      0.153272
    120 H54         3.7910   -3.0430   -1.8760 h1        1 MOL      0.073641
    121 H55         4.9780   -0.8990   -2.5410 h1        1 MOL      0.017896
    122 H56         2.6600    0.2480   -1.5220 ho        1 MOL      0.401201
    123 H57         2.0000   -1.0240   -2.9670 hc        1 MOL      0.140078
    124 H58         3.1140   -0.2590   -4.1670 hc        1 MOL      0.140078
    125 H59         3.0330   -2.0190   -3.9720 hc        1 MOL      0.140078
    126 N11         6.1760   -2.3730   -0.7890 n         1 MOL     -0.408761
    127 C39         7.4690   -2.0390    0.0070 c3        1 MOL     -0.062590
    128 C40         7.4360   -0.6010    0.6310 c         1 MOL      0.263084
    129 O19         7.7040   -0.4420    1.8550 o         1 MOL     -0.430250
    130 C41         8.6500   -2.1180   -1.0090 c3        1 MOL      0.197480
    131 C42         8.9030   -3.5970   -1.2650 c3        1 MOL     -0.438608
    132 O20         8.3100   -1.5070   -2.2530 oh        1 MOL     -0.629357
    133 H60         6.3140   -2.5880   -1.7620 hn        1 MOL      0.287458
    134 H61         7.5230   -2.7240    0.8600 h1        1 MOL      0.171058
    135 H62         9.5300   -1.6710   -0.5600 h1        1 MOL      0.082793
    136 H63         9.0940   -1.4620   -2.8040 ho        1 MOL      0.400190
    137 H64         9.1040   -4.1570   -0.3570 hc        1 MOL      0.135517
    138 H65         8.0650   -4.1260   -1.7070 hc        1 MOL      0.135517
    139 H66         9.7780   -3.6740   -1.9210 hc        1 MOL      0.135517
    140 N12         6.9600    0.4050   -0.1870 n         1 MOL     -0.169811
    141 C43         6.6840    1.7890    0.1010 c3        1 MOL     -0.051056
    142 C44         5.7080    2.0500    1.2120 c         1 MOL      0.517103
    143 O21         5.8260    3.1030    1.7390 o         1 MOL     -0.537725
    144 C45         6.1570    2.4020   -1.3110 c3        1 MOL     -0.365466
    145 C46         7.2280    2.4770   -2.4610 c3        1 MOL      0.312029
    146 C47         6.7580    2.5030   -3.9240 c3        1 MOL     -0.133402
    147 C48         7.8970    2.7530   -4.8350 c3        1 MOL     -0.105501
    148 N13         8.7270    1.5220   -4.9470 n4        1 MOL     -0.346358
    149 H67         6.7900   -0.0030   -1.0970 hn        1 MOL      0.230536
    150 H68         7.6230    2.2280    0.4120 h1        1 MOL      0.096036
    151 H69         5.7470    3.3810   -1.0730 hc        1 MOL      0.117877
    152 H70         5.3320    1.7820   -1.6630 hc        1 MOL      0.117877
    153 H71         7.8540    1.5840   -2.3340 hc        1 MOL     -0.052778
    154 H72         7.8210    3.3730   -2.3140 hc        1 MOL     -0.052778
    155 H73         6.0180    3.3030   -4.0040 hc        1 MOL      0.067151
    156 H74         6.2950    1.5940   -4.3280 hc        1 MOL      0.067151
    157 H75         8.4570    3.6330   -4.5220 hx        1 MOL      0.136084
    158 H76         7.5470    2.9000   -5.8580 hx        1 MOL      0.136084
    159 H77         9.1550    1.5570   -5.8720 hn        1 MOL      0.299157
    160 H78         9.4760    1.4650   -4.2710 hn        1 MOL      0.299157
    161 H79         8.1010    0.7220   -4.9490 hn        1 MOL      0.299157
    162 N14         4.7960    1.0680    1.4970 n         1 MOL     -0.241154
    163 C49         3.7980    1.1610    2.5720 c3        1 MOL     -0.104567
    164 C50         4.2630    0.1980    3.7500 c         1 MOL      0.420712
    165 O22         3.6010    0.2110    4.7920 o         1 MOL     -0.527686
    166 C51         2.4160    0.7280    1.9320 c3        1 MOL      0.219828
    167 C52         1.9230    1.7380    0.8270 c3        1 MOL     -0.157318
    168 C53         0.7380    1.2190    0.1470 c         1 MOL      0.695577
    169 O23        -0.4190    1.7240    0.3100 o         1 MOL     -0.716681
    170 O24         0.8790    0.1860   -0.5790 o         1 MOL     -0.716681
    171 H80         4.7970    0.3000    0.8490 hn        1 MOL      0.315817
    172 H81         3.6900    2.2010    2.8830 h1        1 MOL      0.121457
    173 H82         1.6360    0.6500    2.6800 hc        1 MOL      0.030725
    174 H83         2.4710   -0.2210    1.3960 hc        1 MOL      0.030725
    175 H84         2.7140    1.8230    0.0810 hc        1 MOL     -0.007158
    176 H85         1.7390    2.7160    1.2760 hc        1 MOL     -0.007158
    177 N15         5.2780   -0.5860    3.5620 n         1 MOL     -0.126058
    178 C54         5.7280   -1.6670    4.4770 c3        1 MOL     -0.245630
    179 H86         6.6420   -2.1140    4.0870 h1        1 MOL      0.110691
    180 H87         5.9210   -1.2490    5.4660 h1        1 MOL      0.110691
    181 H88         4.9530   -2.4290    4.5480 h1        1 MOL      0.110691
    182 H89         5.7360   -0.5000    2.6680 hn        1 MOL      0.051336
    183 Ca1        -1.7310    0.0930   -1.2370 Ca        1 MOL      1.796114
    184 O25        -0.7360    1.4400   -3.4350 oh        1 MOL     -0.955070
    185 H90        -1.5200    1.9160   -3.7090 ho        1 MOL      0.427876
    186 H91        -0.5830    0.7970   -4.1320 ho        1 MOL      0.427876
    187 O26        -0.7380   -1.9380   -2.8680 oh        1 MOL     -0.955070
    188 H92        -0.0370   -2.4220   -3.3010 ho        1 MOL      0.427876
    189 H93        -1.5270   -2.4470   -3.0400 ho        1 MOL      0.427876
@<TRIPOS>BOND
     1    1    2 1   
     2    1    4 1   
     3    1    5 1   
     4    1    6 1   
     5    2    3 2   
     6    2    7 1   
     7    7    8 1   
     8    7   15 1   
     9    8    9 1   
    10    8   11 1   
    11    8   16 1   
    12    9   10 2   
    13    9   19 1   
    14   11   12 1   
    15   11   17 1   
    16   11   18 1   
    17   12   13 1   
    18   12   14 1   
    19   19   20 1   
    20   19   28 1   
    21   20   21 1   
    22   20   23 1   
    23   20   29 1   
    24   21   22 2   
    25   21   41 1   
    26   23   24 1   
    27   23   30 1   
    28   23   31 1   
    29   24   25 1   
    30   24   32 1   
    31   24   33 1   
    32   25   26 1   
    33   25   34 1   
    34   25   35 1   
    35   26   27 1   
    36   26   36 1   
    37   26   37 1   
    38   27   38 1   
    39   27   39 1   
    40   27   40 1   
    41   41   42 1   
    42   41   49 1   
    43   42   43 1   
    44   42   45 1   
    45   42   50 1   
    46   43   44 2   
    47   43   53 1   
    48   45   46 1   
    49   45   51 1   
    50   45   52 1   
    51   46   47 1   
    52   46   48 1   
    53   53   54 1   
    54   53   57 1   
    55   54   55 1   
    56   54   58 1   
    57   54   59 1   
    58   55   56 2   
    59   55   60 1   
    60   60   61 1   
    61   60   68 1   
    62   61   62 1   
    63   61   64 1   
    64   61   69 1   
    65   62   63 2   
    66   62   72 1   
    67   64   65 1   
    68   64   70 1   
    69   64   71 1   
    70   65   66 1   
    71   65   67 1   
    72   72   73 1   
    73   72   76 1   
    74   73   74 1   
    75   73   77 1   
    76   73   78 1   
    77   74   75 2   
    78   74   79 1   
    79   79   80 1   
    80   79   86 1   
    81   80   81 1   
    82   80   83 1   
    83   80   87 1   
    84   81   82 2   
    85   81   93 1   
    86   83   84 1   
    87   83   85 1   
    88   83   88 1   
    89   84   90 1   
    90   84   91 1   
    91   84   92 1   
    92   85   89 1   
    93   93   94 1   
    94   93  101 1   
    95   94   95 1   
    96   94   97 1   
    97   94  102 1   
    98   95   96 2   
    99   95  112 1   
   100   97   98 1   
   101   97   99 1   
   102   97  103 1   
   103   98  100 1   
   104   98  104 1   
   105   98  105 1   
   106   99  106 1   
   107   99  107 1   
   108   99  108 1   
   109  100  109 1   
   110  100  110 1   
   111  100  111 1   
   112  112  113 1   
   113  112  119 1   
   114  113  114 1   
   115  113  116 1   
   116  113  120 1   
   117  114  115 2   
   118  114  126 1   
   119  116  117 1   
   120  116  118 1   
   121  116  121 1   
   122  117  123 1   
   123  117  124 1   
   124  117  125 1   
   125  118  122 1   
   126  126  127 1   
   127  126  133 1   
   128  127  128 1   
   129  127  130 1   
   130  127  134 1   
   131  128  129 2   
   132  128  140 1   
   133  130  131 1   
   134  130  132 1   
   135  130  135 1   
   136  131  137 1   
   137  131  138 1   
   138  131  139 1   
   139  132  136 1   
   140  140  141 1   
   141  140  149 1   
   142  141  142 1   
   143  141  144 1   
   144  141  150 1   
   145  142  143 2   
   146  142  162 1   
   147  144  145 1   
   148  144  151 1   
   149  144  152 1   
   150  145  146 1   
   151  145  153 1   
   152  145  154 1   
   153  146  147 1   
   154  146  155 1   
   155  146  156 1   
   156  147  148 1   
   157  147  157 1   
   158  147  158 1   
   159  148  159 1   
   160  148  160 1   
   161  148  161 1   
   162  162  163 1   
   163  162  171 1   
   164  163  164 1   
   165  163  166 1   
   166  163  172 1   
   167  164  165 2   
   168  164  177 1   
   169  166  167 1   
   170  166  173 1   
   171  166  174 1   
   172  167  168 1   
   173  167  175 1   
   174  167  176 1   
   175  168  169 1   
   176  168  170 1   
   177  177  178 1   
   178  177  182 1   
   179  178  179 1   
   180  178  180 1   
   181  178  181 1   
   182  184  185 1   
   183  184  186 1   
   184  187  188 1   
   185  187  189 1   
@<TRIPOS>SUBSTRUCTURE
     1 MOL         1 TEMP              0 ****  ****    0 ROOT
