@<TRIPOS>MOLECULE
MOL
  189   185     1     0     0
SMALL
resp


@<TRIPOS>ATOM
      1 C1          0.5650    3.3790   -5.6430 c3        1 MOL     -0.522597
      2 C2          0.6080    2.8190   -4.2120 c         1 MOL      0.686119
      3 O1         -0.2680    3.0830   -3.3500 o         1 MOL     -0.579590
      4 H1          1.5180    3.1870   -6.1360 hc        1 MOL      0.140055
      5 H2         -0.2360    2.8920   -6.2010 hc        1 MOL      0.140055
      6 H3          0.3830    4.4520   -5.6090 hc        1 MOL      0.140055
      7 N1          1.7380    2.0950   -3.8730 n         1 MOL     -0.546764
      8 C3          2.2000    1.7570   -2.5610 c3        1 MOL      0.072628
      9 C4          2.7850    2.9720   -1.9000 c         1 MOL      0.490245
     10 O2          3.7210    3.5900   -2.3990 o         1 MOL     -0.559365
     11 C5          3.2660    0.6610   -2.7210 c3        1 MOL     -0.183801
     12 C6          4.0340    0.4130   -1.4190 c         1 MOL      0.736577
     13 O3          3.4240    0.3750   -0.3120 o         1 MOL     -0.637780
     14 O4          5.2870    0.3980   -1.4730 o         1 MOL     -0.637780
     15 H4          2.3920    2.0050   -4.6360 hn        1 MOL      0.330893
     16 H5          1.3260    1.3780   -2.0350 h1        1 MOL     -0.045276
     17 H6          3.9280    0.8310   -3.5750 hc        1 MOL      0.037236
     18 H7          2.7260   -0.2640   -2.9250 hc        1 MOL      0.037236
     19 N2          2.1990    3.2690   -0.7080 n         1 MOL     -0.154156
     20 C7          2.3440    4.5520    0.0400 c3        1 MOL     -0.076751
     21 C8          3.1930    4.4650    1.2690 c         1 MOL      0.630527
     22 O5          3.4420    5.5300    1.7930 o         1 MOL     -0.597716
     23 C9          1.0000    5.2130    0.2840 c3        1 MOL      0.085231
     24 C10         0.1340    5.6070   -0.9050 c3        1 MOL     -0.066193
     25 C11         0.8210    6.3220   -2.0620 c3        1 MOL     -0.047518
     26 C12        -0.3090    6.5860   -3.1340 c3        1 MOL      0.120429
     27 N3          0.1300    7.3250   -4.3120 n4        1 MOL     -0.513403
     28 H8          1.4340    2.6480   -0.5350 hn        1 MOL      0.200752
     29 H9          2.9410    5.2220   -0.5810 h1        1 MOL      0.049893
     30 H10         1.0850    6.0340    0.9920 hc        1 MOL      0.008729
     31 H11         0.3940    4.5570    0.9110 hc        1 MOL      0.008729
     32 H12        -0.6840    6.2560   -0.5780 hc        1 MOL      0.009195
     33 H13        -0.2880    4.7090   -1.3480 hc        1 MOL      0.009195
     34 H14         1.4560    5.5280   -2.4800 hc        1 MOL      0.038285
     35 H15         1.3670    7.2000   -1.7160 hc        1 MOL      0.038285
     36 H16        -1.1090    7.1300   -2.6460 hx        1 MOL      0.066478
     37 H17        -0.7650    5.6570   -3.4820 hx        1 MOL      0.066478
     38 H18        -0.6930    7.4660   -4.8870 hn        1 MOL      0.358912
     39 H19         0.3900    8.2490   -4.0260 hn        1 MOL      0.358912
     40 H20         0.8430    6.8390   -4.8270 hn        1 MOL      0.358912
     41 N4          3.7270    3.2870    1.6870 n         1 MOL     -0.486735
     42 C13         4.6600    3.0760    2.8860 c3        1 MOL      0.172410
     43 C14         5.8870    2.1350    2.5460 c         1 MOL      0.345435
     44 O6          6.5620    1.5450    3.4080 o         1 MOL     -0.427319
     45 C15         3.7910    2.5940    4.0780 c3        1 MOL     -0.219208
     46 C16         2.5980    1.7310    3.8580 c         1 MOL      0.890457
     47 O7          2.4860    1.1170    2.7810 o         1 MOL     -0.778396
     48 O8          1.6060    1.7420    4.5720 o         1 MOL     -0.778396
     49 H21         3.4130    2.4540    1.2200 hn        1 MOL      0.201321
     50 H22         5.0210    4.0850    3.1030 h1        1 MOL      0.070811
     51 H23         3.4240    3.5610    4.4350 hc        1 MOL      0.035415
     52 H24         4.5030    2.2710    4.8370 hc        1 MOL      0.035415
     53 N5          6.2550    2.0730    1.2540 n         1 MOL     -0.342010
     54 C17         7.5690    1.4430    0.9060 c3        1 MOL     -0.061833
     55 C18         7.7340    0.0320    1.3930 c         1 MOL      0.427159
     56 O9          8.7940   -0.2380    1.9450 o         1 MOL     -0.544764
     57 H25         5.6700    2.5000    0.5610 hn        1 MOL      0.260168
     58 H26         8.3860    2.0850    1.2600 h1        1 MOL      0.085868
     59 H27         7.6720    1.4260   -0.1810 h1        1 MOL      0.085868
     60 N6          6.7470   -0.8450    1.1380 n         1 MOL     -0.172678
     61 C19         6.7860   -2.2800    1.3960 c3        1 MOL      0.020514
     62 C20         6.6400   -3.1680    0.1780 c         1 MOL      0.327048
     63 O10         6.7250   -4.4050    0.2900 o         1 MOL     -0.528864
     64 C21         5.7020   -2.6910    2.4170 c3        1 MOL     -0.063552
     65 C22         4.2860   -2.2800    2.0100 c         1 MOL      0.694263
     66 O11         3.7480   -2.3090    0.8760 o         1 MOL     -0.738640
     67 O12         3.5330   -1.9420    2.9680 o         1 MOL     -0.738640
     68 H28         5.9640   -0.4090    0.6790 hn        1 MOL      0.141891
     69 H29         7.7500   -2.6140    1.7830 h1        1 MOL      0.092717
     70 H30         6.0010   -2.1600    3.3150 hc        1 MOL      0.035578
     71 H31         5.7790   -3.7540    2.6770 hc        1 MOL      0.035578
     72 N7          6.3080   -2.5870   -0.9600 n         1 MOL     -0.108281
     73 C23         6.0750   -3.2710   -2.2290 c3        1 MOL     -0.175597
     74 C24         4.7490   -4.0320   -2.4090 c         1 MOL      0.621378
     75 O13         4.7480   -4.8870   -3.2550 o         1 MOL     -0.580167
     76 H32         6.1900   -1.5890   -1.0000 hn        1 MOL      0.136882
     77 H33         6.9420   -3.8890   -2.4670 h1        1 MOL      0.086866
     78 H34         5.9050   -2.3840   -2.8380 h1        1 MOL      0.086866
     79 N8          3.6920   -3.7800   -1.6420 n         1 MOL     -0.346815
     80 C25         2.3250   -4.2790   -1.6940 c3        1 MOL      0.002567
     81 C26         1.1330   -3.3020   -1.5450 c         1 MOL      0.648027
     82 O14         1.2870   -2.1130   -1.1540 o         1 MOL     -0.722432
     83 C27         2.0150   -5.5040   -0.7930 c3        1 MOL      0.264680
     84 C28         2.9360   -6.6640   -1.1090 c3        1 MOL     -0.467128
     85 O15         2.1430   -5.1640    0.5530 oh        1 MOL     -0.597227
     86 H35         3.8260   -3.0210   -0.9910 hn        1 MOL      0.227216
     87 H36         2.2720   -4.6580   -2.7060 h1        1 MOL      0.047674
     88 H37         0.9720   -5.7830   -0.9320 h1        1 MOL      0.065117
     89 H38         3.0680   -5.1110    0.7980 ho        1 MOL      0.429574
     90 H39         3.9870   -6.4000   -1.2910 hc        1 MOL      0.130200
     91 H40         2.9630   -7.4010   -0.3100 hc        1 MOL      0.130200
     92 H41         2.5050   -7.0730   -2.0140 hc        1 MOL      0.130200
     93 N9         -0.0330   -3.7240   -1.9860 n         1 MOL     -0.460081
     94 C29        -1.3210   -2.9330   -1.9920 c3        1 MOL      0.045142
     95 C30        -2.3240   -3.5020   -0.9570 c         1 MOL      0.396468
     96 O16        -2.7590   -4.6810   -1.0150 o         1 MOL     -0.537206
     97 C31        -1.8070   -2.6650   -3.3640 c3        1 MOL      0.079581
     98 C32        -0.8060   -1.9470   -4.2720 c3        1 MOL     -0.144806
     99 C33        -3.1500   -2.0510   -3.2690 c3        1 MOL     -0.044620
    100 C34        -0.4010   -0.4890   -3.8290 c3        1 MOL      0.020279
    101 H42        -0.0500   -4.6720   -2.3320 hn        1 MOL      0.253027
    102 H43        -1.0920   -1.9810   -1.5050 h1        1 MOL      0.236072
    103 H44        -2.0030   -3.5540   -3.9510 hc        1 MOL      0.014773
    104 H45        -1.2030   -1.8010   -5.2780 hc        1 MOL      0.024665
    105 H46         0.0630   -2.5910   -4.3910 hc        1 MOL      0.024665
    106 H47        -3.8230   -2.8320   -2.9190 hc        1 MOL     -0.007887
    107 H48        -3.2100   -1.2540   -2.5180 hc        1 MOL     -0.007887
    108 H49        -3.5000   -1.6440   -4.2220 hc        1 MOL     -0.007887
    109 H50        -1.1100    0.2250   -4.2510 hc        1 MOL      0.035887
    110 H51        -0.0940   -0.4170   -2.7880 hc        1 MOL      0.035887
    111 H52         0.5230   -0.2950   -4.3890 hc        1 MOL      0.035887
    112 N10        -2.6650   -2.6850    0.0170 n         1 MOL     -0.052280
    113 C35        -3.8380   -2.7900    0.9640 c3        1 MOL     -0.114411
    114 C36        -5.2580   -2.5030    0.2900 c         1 MOL      0.369315
    115 O17        -5.2140   -1.8640   -0.7600 o         1 MOL     -0.290285
    116 C37        -3.6980   -1.8310    2.1430 c3        1 MOL      0.200533
    117 C38        -2.4640   -2.1840    2.9750 c3        1 MOL     -0.241877
    118 O18        -3.5000   -0.5720    1.6550 oh        1 MOL     -0.602277
    119 H53        -2.1800   -1.8120    0.1560 hn        1 MOL      0.033298
    120 H54        -3.8820   -3.7590    1.4770 h1        1 MOL      0.061514
    121 H55        -4.5340   -1.8900    2.8300 h1        1 MOL      0.055077
    122 H56        -2.5740   -0.5010    1.4340 ho        1 MOL      0.404918
    123 H57        -2.4780   -1.6770    3.9400 hc        1 MOL      0.073809
    124 H58        -2.5930   -3.2100    3.3160 hc        1 MOL      0.073809
    125 H59        -1.4860   -2.1040    2.4920 hc        1 MOL      0.073809
    126 N11        -6.3530   -2.7470    0.9720 n         1 MOL     -0.299736
    127 C39        -7.6970   -2.2660    0.4530 c3        1 MOL     -0.165255
    128 C40        -7.6460   -0.7280    0.2230 c         1 MOL      0.344688
    129 O19        -8.1770   -0.2200   -0.7270 o         1 MOL     -0.484811
    130 C41        -8.8460   -2.6510    1.4480 c3        1 MOL      0.355202
    131 C42        -9.0140   -4.1570    1.6490 c3        1 MOL     -0.542070
    132 O20        -8.5260   -2.1200    2.7160 oh        1 MOL     -0.684334
    133 H60        -6.3430   -3.3580    1.7730 hn        1 MOL      0.276748
    134 H61        -7.8750   -2.7610   -0.5030 h1        1 MOL      0.145706
    135 H62        -9.8290   -2.3420    1.0800 h1        1 MOL      0.056540
    136 H63        -8.9790   -2.6430    3.3760 ho        1 MOL      0.429713
    137 H64        -9.9400   -4.2890    2.1970 hc        1 MOL      0.152467
    138 H65        -9.2100   -4.5250    0.6370 hc        1 MOL      0.152467
    139 H66        -8.1500   -4.5920    2.1610 hc        1 MOL      0.152467
    140 N12        -7.0060   -0.0090    1.1190 n         1 MOL     -0.057485
    141 C43        -6.9710    1.5170    1.1210 c3        1 MOL     -0.050004
    142 C44        -6.1250    2.1500    0.0590 c         1 MOL      0.374639
    143 O21        -6.5350    3.1860   -0.4910 o         1 MOL     -0.508608
    144 C45        -6.7490    2.1730    2.5480 c3        1 MOL     -0.095474
    145 C46        -5.3500    1.8350    3.1740 c3        1 MOL      0.204495
    146 C47        -5.0380    2.6230    4.4730 c3        1 MOL     -0.445325
    147 C48        -3.6300    2.3060    4.8860 c3        1 MOL      0.303755
    148 N13        -3.1600    3.1800    5.9860 n4        1 MOL     -0.462597
    149 H67        -6.7190   -0.5610    1.9220 hn        1 MOL      0.190498
    150 H68        -7.9510    1.8830    0.8130 h1        1 MOL      0.115444
    151 H69        -7.5340    1.6310    3.0780 hc        1 MOL      0.040492
    152 H70        -6.9460    3.2420    2.4610 hc        1 MOL      0.040492
    153 H71        -4.6060    2.0980    2.4140 hc        1 MOL      0.027896
    154 H72        -5.3510    0.7570    3.2960 hc        1 MOL      0.027896
    155 H73        -5.8060    2.4040    5.2130 hc        1 MOL      0.115650
    156 H74        -5.1660    3.6740    4.2190 hc        1 MOL      0.115650
    157 H75        -3.0460    2.3030    3.9600 hx        1 MOL      0.034051
    158 H76        -3.5540    1.2620    5.1830 hx        1 MOL      0.034051
    159 H77        -2.1920    3.0600    6.2630 hn        1 MOL      0.355372
    160 H78        -3.2450    4.1400    5.7040 hn        1 MOL      0.355372
    161 H79        -3.6950    2.9760    6.8210 hn        1 MOL      0.355372
    162 N14        -4.9490    1.5770   -0.2690 n         1 MOL     -0.025451
    163 C49        -4.1530    1.8860   -1.4520 c3        1 MOL     -0.117000
    164 C50        -4.8570    1.3940   -2.7560 c         1 MOL      0.514451
    165 O22        -4.8180    2.1090   -3.7310 o         1 MOL     -0.570202
    166 C51        -2.7760    1.2050   -1.2580 c3        1 MOL      0.108461
    167 C52        -1.9020    1.7790   -0.1420 c3        1 MOL      0.204013
    168 C53        -0.8110    0.8420    0.2330 c         1 MOL      0.521481
    169 O23        -1.0030   -0.3360    0.5340 o         1 MOL     -0.620515
    170 O24         0.3700    1.3300    0.2720 o         1 MOL     -0.620515
    171 H80        -4.6340    0.9120    0.4290 hn        1 MOL     -0.164720
    172 H81        -3.9690    2.9570   -1.4680 h1        1 MOL      0.064077
    173 H82        -2.2240    1.2290   -2.1930 hc        1 MOL     -0.026326
    174 H83        -2.8730    0.1750   -0.9100 hc        1 MOL     -0.026326
    175 H84        -2.5690    1.9050    0.7090 hc        1 MOL     -0.037228
    176 H85        -1.5460    2.8080   -0.2630 hc        1 MOL     -0.037228
    177 N15        -5.4890    0.2430   -2.6710 n         1 MOL     -0.039634
    178 C54        -6.2600   -0.3090   -3.8450 c3        1 MOL     -0.329362
    179 H86        -7.2330    0.1800   -3.9020 h1        1 MOL      0.121007
    180 H87        -5.7060   -0.1230   -4.7650 h1        1 MOL      0.121007
    181 H88        -6.4010   -1.3820   -3.7160 h1        1 MOL      0.121007
    182 H89        -5.4850   -0.2900   -1.8090 hn        1 MOL      0.108162
    183 Ca1         1.6950   -0.7390    1.1950 Ca        1 MOL      1.749206
    184 O25         0.3080   -0.4520    3.5530 oh        1 MOL     -0.870876
    185 H90         0.8500    0.2270    3.9540 ho        1 MOL      0.396755
    186 H91        -0.3420   -0.6580    4.2140 ho        1 MOL      0.396755
    187 O26         0.5920   -3.2980    1.7910 oh        1 MOL     -0.870876
    188 H92         1.2960   -3.8810    1.4970 ho        1 MOL      0.396755
    189 H93         0.0770   -3.8310    2.4000 ho        1 MOL      0.396755
@<TRIPOS>BOND
     1    1    2 1   
     2    1    4 1   
     3    1    5 1   
     4    1    6 1   
     5    2    3 2   
     6    2    7 1   
     7    7    8 1   
     8    7   15 1   
     9    8    9 1   
    10    8   11 1   
    11    8   16 1   
    12    9   10 2   
    13    9   19 1   
    14   11   12 1   
    15   11   17 1   
    16   11   18 1   
    17   12   13 1   
    18   12   14 1   
    19   19   20 1   
    20   19   28 1   
    21   20   21 1   
    22   20   23 1   
    23   20   29 1   
    24   21   22 2   
    25   21   41 1   
    26   23   24 1   
    27   23   30 1   
    28   23   31 1   
    29   24   25 1   
    30   24   32 1   
    31   24   33 1   
    32   25   26 1   
    33   25   34 1   
    34   25   35 1   
    35   26   27 1   
    36   26   36 1   
    37   26   37 1   
    38   27   38 1   
    39   27   39 1   
    40   27   40 1   
    41   41   42 1   
    42   41   49 1   
    43   42   43 1   
    44   42   45 1   
    45   42   50 1   
    46   43   44 2   
    47   43   53 1   
    48   45   46 1   
    49   45   51 1   
    50   45   52 1   
    51   46   47 1   
    52   46   48 1   
    53   53   54 1   
    54   53   57 1   
    55   54   55 1   
    56   54   58 1   
    57   54   59 1   
    58   55   56 2   
    59   55   60 1   
    60   60   61 1   
    61   60   68 1   
    62   61   62 1   
    63   61   64 1   
    64   61   69 1   
    65   62   63 2   
    66   62   72 1   
    67   64   65 1   
    68   64   70 1   
    69   64   71 1   
    70   65   66 1   
    71   65   67 1   
    72   72   73 1   
    73   72   76 1   
    74   73   74 1   
    75   73   77 1   
    76   73   78 1   
    77   74   75 2   
    78   74   79 1   
    79   79   80 1   
    80   79   86 1   
    81   80   81 1   
    82   80   83 1   
    83   80   87 1   
    84   81   82 2   
    85   81   93 1   
    86   83   84 1   
    87   83   85 1   
    88   83   88 1   
    89   84   90 1   
    90   84   91 1   
    91   84   92 1   
    92   85   89 1   
    93   93   94 1   
    94   93  101 1   
    95   94   95 1   
    96   94   97 1   
    97   94  102 1   
    98   95   96 2   
    99   95  112 1   
   100   97   98 1   
   101   97   99 1   
   102   97  103 1   
   103   98  100 1   
   104   98  104 1   
   105   98  105 1   
   106   99  106 1   
   107   99  107 1   
   108   99  108 1   
   109  100  109 1   
   110  100  110 1   
   111  100  111 1   
   112  112  113 1   
   113  112  119 1   
   114  113  114 1   
   115  113  116 1   
   116  113  120 1   
   117  114  115 2   
   118  114  126 1   
   119  116  117 1   
   120  116  118 1   
   121  116  121 1   
   122  117  123 1   
   123  117  124 1   
   124  117  125 1   
   125  118  122 1   
   126  126  127 1   
   127  126  133 1   
   128  127  128 1   
   129  127  130 1   
   130  127  134 1   
   131  128  129 2   
   132  128  140 1   
   133  130  131 1   
   134  130  132 1   
   135  130  135 1   
   136  131  137 1   
   137  131  138 1   
   138  131  139 1   
   139  132  136 1   
   140  140  141 1   
   141  140  149 1   
   142  141  142 1   
   143  141  144 1   
   144  141  150 1   
   145  142  143 2   
   146  142  162 1   
   147  144  145 1   
   148  144  151 1   
   149  144  152 1   
   150  145  146 1   
   151  145  153 1   
   152  145  154 1   
   153  146  147 1   
   154  146  155 1   
   155  146  156 1   
   156  147  148 1   
   157  147  157 1   
   158  147  158 1   
   159  148  159 1   
   160  148  160 1   
   161  148  161 1   
   162  162  163 1   
   163  162  171 1   
   164  163  164 1   
   165  163  166 1   
   166  163  172 1   
   167  164  165 2   
   168  164  177 1   
   169  166  167 1   
   170  166  173 1   
   171  166  174 1   
   172  167  168 1   
   173  167  175 1   
   174  167  176 1   
   175  168  169 1   
   176  168  170 1   
   177  177  178 1   
   178  177  182 1   
   179  178  179 1   
   180  178  180 1   
   181  178  181 1   
   182  184  185 1   
   183  184  186 1   
   184  187  188 1   
   185  187  189 1   
@<TRIPOS>SUBSTRUCTURE
     1 MOL         1 TEMP              0 ****  ****    0 ROOT
