@<TRIPOS>MOLECULE
MOL
  179   176     1     0     0
SMALL
resp


@<TRIPOS>ATOM
      1 C1         -1.3020   -3.6460    5.9370 c3        1 MOL     -0.381976
      2 C2         -1.0310   -3.3030    4.4620 c         1 MOL      0.753036
      3 O1         -1.8710   -3.4230    3.5690 o         1 MOL     -0.610075
      4 H1         -2.1500   -4.3280    6.0000 hc        1 MOL      0.095863
      5 H2         -0.4210   -4.1220    6.3670 hc        1 MOL      0.095863
      6 H3         -1.5290   -2.7330    6.4870 hc        1 MOL      0.095863
      7 N1          0.1850   -2.9140    4.1930 n         1 MOL     -0.593206
      8 C3          0.6410   -2.6600    2.7820 c3        1 MOL      0.010530
      9 C4          0.8090   -4.0210    1.9540 c         1 MOL      0.622114
     10 O2          1.3990   -4.9670    2.3520 o         1 MOL     -0.556478
     11 C5          1.9810   -1.8860    2.8540 c3        1 MOL      0.051861
     12 C6          2.6240   -1.4770    1.5350 c         1 MOL      0.426656
     13 O3          2.2560   -1.9660    0.4580 o         1 MOL     -0.641107
     14 O4          3.5560   -0.7160    1.6080 o         1 MOL     -0.641107
     15 H4          0.8390   -2.7390    4.9400 hn        1 MOL      0.310778
     16 H5         -0.0600   -2.0050    2.2690 h1        1 MOL      0.045198
     17 H6          2.7010   -2.5270    3.3730 hc        1 MOL      0.022299
     18 H7          1.8250   -1.0310    3.5200 hc        1 MOL      0.022299
     19 N2          0.1180   -4.1090    0.7970 n         1 MOL     -0.282951
     20 C7          0.1110   -5.3080   -0.0750 c3        1 MOL     -0.018124
     21 C8          1.4600   -5.5820   -0.8010 c         1 MOL      0.577477
     22 O5          1.5290   -6.7490   -1.2570 o         1 MOL     -0.590090
     23 C9         -0.9770   -5.0960   -1.1520 c3        1 MOL     -0.264255
     24 C10        -2.3260   -5.5600   -0.5520 c3        1 MOL      0.034705
     25 C11        -3.4380   -5.5330   -1.5560 c3        1 MOL     -0.020434
     26 C12        -4.7240   -6.1120   -0.8930 c3        1 MOL      0.070876
     27 N3         -5.8830   -6.1090   -1.8550 n4        1 MOL     -0.358558
     28 H8         -0.3070   -3.2480    0.4770 hn        1 MOL      0.154106
     29 H9         -0.0860   -6.2710    0.4110 h1        1 MOL      0.075489
     30 H10        -0.7850   -5.6550   -2.0760 hc        1 MOL      0.097889
     31 H11        -1.0680   -4.0230   -1.3340 hc        1 MOL      0.097889
     32 H12        -2.5350   -4.9930    0.3560 hc        1 MOL      0.051100
     33 H13        -2.2140   -6.6290   -0.3650 hc        1 MOL      0.051100
     34 H14        -3.1830   -6.0700   -2.4650 hc        1 MOL      0.022600
     35 H15        -3.6500   -4.4820   -1.7800 hc        1 MOL      0.022600
     36 H16        -5.0000   -5.4490   -0.0790 hx        1 MOL      0.075438
     37 H17        -4.5090   -7.0530   -0.3880 hx        1 MOL      0.075438
     38 H18        -6.2070   -5.1670   -2.0330 hn        1 MOL      0.320862
     39 H19        -5.7680   -6.5100   -2.7750 hn        1 MOL      0.320862
     40 H20        -6.7250   -6.5370   -1.5180 hn        1 MOL      0.320862
     41 N4          2.3650   -4.6550   -0.8090 n         1 MOL     -0.395678
     42 C13         3.6720   -4.8610   -1.4710 c3        1 MOL     -0.052080
     43 C14         4.9020   -4.4260   -0.5450 c         1 MOL      0.420215
     44 O6          6.0600   -4.6260   -0.9100 o         1 MOL     -0.496314
     45 C15         3.7060   -4.5290   -3.0190 c3        1 MOL      0.078930
     46 C16         2.9830   -3.2540   -3.3940 c         1 MOL      0.619889
     47 O7          2.9410   -2.3970   -2.4790 o         1 MOL     -0.694589
     48 O8          2.6080   -3.0770   -4.6040 o         1 MOL     -0.694589
     49 H21         2.0880   -3.7740   -0.3910 hn        1 MOL      0.238115
     50 H22         3.8620   -5.9310   -1.5630 h1        1 MOL      0.105180
     51 H23         3.2600   -5.3900   -3.5200 hc        1 MOL     -0.001925
     52 H24         4.7690   -4.5030   -3.2600 hc        1 MOL     -0.001925
     53 N5          4.6020   -3.8600    0.6340 n         1 MOL     -0.184125
     54 C17         5.5540   -3.2810    1.5950 c3        1 MOL     -0.093402
     55 C18         6.4340   -2.1870    0.8760 c         1 MOL      0.410977
     56 O9          7.6480   -2.1630    1.1540 o         1 MOL     -0.573959
     57 H25         3.6190   -3.7230    0.8390 hn        1 MOL      0.154178
     58 H26         6.2400   -4.0750    1.8800 h1        1 MOL      0.091304
     59 H27         5.1180   -2.8740    2.5040 h1        1 MOL      0.091304
     60 N6          5.9490   -1.4170    0.0220 n         1 MOL     -0.046695
     61 C19         6.7280   -0.3100   -0.6200 c3        1 MOL     -0.195670
     62 C20         6.8320    0.9710    0.2500 c         1 MOL      0.359047
     63 O10         7.5520    1.9060   -0.1960 o         1 MOL     -0.467039
     64 C21         6.1640   -0.0610   -2.0580 c3        1 MOL     -0.151747
     65 C22         5.0160    0.9030   -2.0950 c         1 MOL      0.520928
     66 N7          5.1050    2.0270   -2.6930 n         1 MOL     -0.670467
     67 O11         3.9530    0.5580   -1.5950 o         1 MOL     -0.546997
     68 H28         4.9620   -1.3930   -0.1470 hn        1 MOL      0.112178
     69 H29         7.7450   -0.6670   -0.8090 h1        1 MOL      0.180221
     70 H30         5.9830   -0.9620   -2.6380 hc        1 MOL      0.098010
     71 H31         6.9710    0.3440   -2.6860 hc        1 MOL      0.098010
     72 H32         6.0260    2.2090   -3.0690 hn        1 MOL      0.359725
     73 H33         4.3090    2.6530   -2.7280 hn        1 MOL      0.359725
     74 N8          6.0270    0.9880    1.3560 n         1 MOL     -0.065913
     75 C23         6.0200    2.1690    2.1580 c3        1 MOL     -0.485645
     76 C24         4.8140    3.0340    2.0500 c         1 MOL      0.767401
     77 O12         4.7810    4.0860    2.6270 o         1 MOL     -0.590818
     78 H34         5.3890    0.2510    1.5900 hn        1 MOL      0.238286
     79 H35         6.7050    2.8920    1.7150 h1        1 MOL      0.180533
     80 H36         6.2240    1.9000    3.1920 h1        1 MOL      0.180533
     81 N9          3.8010    2.6080    1.3260 n         1 MOL     -0.744981
     82 C25         2.6910    3.5040    0.9560 c3        1 MOL      0.532318
     83 C26         1.4100    2.6760    0.8160 c         1 MOL      0.217605
     84 O13         1.4720    1.5930    0.1990 o         1 MOL     -0.405038
     85 C27         2.8420    4.2300   -0.3520 c3        1 MOL     -0.058920
     86 C28         3.9550    5.2640   -0.3990 ca        1 MOL     -0.065593
     87 C29         5.3130    4.9350   -0.6750 ca        1 MOL     -0.121863
     88 C30         3.6360    6.6660   -0.1820 ca        1 MOL     -0.121863
     89 C31         6.3210    5.9430   -0.7900 ca        1 MOL     -0.283212
     90 C32         4.6720    7.6290   -0.1810 ca        1 MOL     -0.283212
     91 C33         6.0470    7.3260   -0.4910 ca        1 MOL      0.387872
     92 O14         6.9710    8.2830   -0.5650 oh        1 MOL     -0.472091
     93 H37         3.9240    1.6440    1.0170 hn        1 MOL      0.403732
     94 H38         2.5420    4.2370    1.7500 h1        1 MOL     -0.018307
     95 H39         1.8940    4.7230   -0.5270 hc        1 MOL      0.012120
     96 H40         2.9080    3.4900   -1.1450 hc        1 MOL      0.012120
     97 H41         5.5000    3.9260   -1.0220 ha        1 MOL      0.113624
     98 H42         2.6050    6.9260    0.0290 ha        1 MOL      0.113624
     99 H43         7.2370    5.5530   -1.2020 ha        1 MOL      0.147715
    100 H44         4.3950    8.6350    0.0960 ha        1 MOL      0.147715
    101 H45         6.6610    9.1110   -0.2020 ho        1 MOL      0.364497
    102 N10         0.2450    3.1660    1.2540 n         1 MOL     -0.371411
    103 C34        -1.0380    2.6020    0.8840 c3        1 MOL      0.007952
    104 C35        -2.0150    3.5900    0.2460 c         1 MOL      0.445414
    105 O15        -2.0720    4.7910    0.5660 o         1 MOL     -0.506094
    106 C36        -1.7560    1.9290    1.9980 c3        1 MOL      0.191907
    107 C37        -2.2860    2.8540    3.0920 c3        1 MOL     -0.193083
    108 C38        -1.0680    0.7420    2.6950 c3        1 MOL     -0.330012
    109 C39        -3.0650    2.1970    4.2330 c3        1 MOL     -0.209013
    110 H46         0.2740    4.0160    1.8090 hn        1 MOL      0.280100
    111 H47        -0.9170    1.8850    0.0770 h1        1 MOL      0.102804
    112 H48        -2.6700    1.4840    1.6100 hc        1 MOL     -0.031683
    113 H49        -3.0630    3.4700    2.6180 hc        1 MOL      0.072151
    114 H50        -1.4250    3.4470    3.4060 hc        1 MOL      0.072151
    115 H51        -0.5170    0.2690    1.8880 hc        1 MOL      0.105709
    116 H52        -0.3780    1.1850    3.4090 hc        1 MOL      0.105709
    117 H53        -1.8410    0.0770    3.0900 hc        1 MOL      0.105709
    118 H54        -2.4810    1.6420    4.9640 hc        1 MOL      0.063956
    119 H55        -3.3330    3.0410    4.8640 hc        1 MOL      0.063956
    120 H56        -4.0220    1.7440    3.9590 hc        1 MOL      0.063956
    121 N11        -2.8070    3.0070   -0.7560 n         1 MOL     -0.285956
    122 C40        -3.9380    3.6870   -1.4060 c3        1 MOL     -0.017593
    123 C41        -5.2410    3.5350   -0.6320 c         1 MOL      0.411551
    124 O16        -5.4380    2.6730    0.2390 o         1 MOL     -0.351774
    125 C42        -4.0900    2.9980   -2.7310 c3        1 MOL     -0.189534
    126 O17        -4.4260    1.6240   -2.4590 oh        1 MOL     -0.241643
    127 H57        -2.6990    2.0770   -1.1330 hn        1 MOL      0.175113
    128 H58        -3.6090    4.6890   -1.6660 h1        1 MOL      0.103324
    129 H59        -3.2260    3.0270   -3.3850 h1        1 MOL      0.113934
    130 H60        -4.8680    3.4810   -3.3320 h1        1 MOL      0.113934
    131 H61        -4.3210    1.0420   -3.2060 ho        1 MOL      0.327290
    132 N12        -6.2780    4.3250   -0.8890 n         1 MOL     -0.378344
    133 C43        -7.6060    4.1320   -0.2960 c3        1 MOL      0.066775
    134 C44        -8.2530    2.7210   -0.5860 c         1 MOL      0.564860
    135 O18        -9.0930    2.2360    0.1730 o         1 MOL     -0.539933
    136 C45        -8.5720    5.2300   -0.7480 c3        1 MOL     -0.242201
    137 H62        -6.1060    5.0430   -1.5720 hn        1 MOL      0.271489
    138 H63        -7.5190    4.2440    0.7900 h1        1 MOL      0.099368
    139 H64        -8.1500    6.2110   -0.5270 hc        1 MOL      0.081085
    140 H65        -8.7300    5.1230   -1.8160 hc        1 MOL      0.081085
    141 H66        -9.5350    5.0710   -0.2680 hc        1 MOL      0.081085
    142 N13        -7.8220    1.9620   -1.5870 n         1 MOL     -0.416618
    143 C46        -8.1200    0.5690   -1.7290 c3        1 MOL      0.218979
    144 C47        -7.2250   -0.4330   -0.8840 c         1 MOL      0.266769
    145 O19        -7.7900   -1.4580   -0.4500 o         1 MOL     -0.521078
    146 C48        -8.0900    0.2870   -3.1810 c3        1 MOL     -0.300909
    147 H67        -6.9440    2.2310   -2.0110 hn        1 MOL      0.189638
    148 H68        -9.1470    0.5700   -1.3620 h1        1 MOL      0.097659
    149 H69        -7.8820   -0.7560   -3.4310 hc        1 MOL      0.074296
    150 H70        -9.0490    0.4680   -3.6830 hc        1 MOL      0.074296
    151 H71        -7.2990    0.9150   -3.5810 hc        1 MOL      0.074296
    152 N14        -5.9320   -0.1620   -0.6600 n         1 MOL     -0.079739
    153 C49        -5.1440   -0.9340    0.3540 c3        1 MOL     -0.031084
    154 C50        -5.7030   -0.6640    1.7450 c         1 MOL      0.444288
    155 O20        -5.4910   -1.6090    2.5290 o         1 MOL     -0.542296
    156 C51        -3.6370   -0.6470    0.1820 c3        1 MOL     -0.278388
    157 C52        -2.9460   -1.6120   -0.7680 c3        1 MOL      0.094758
    158 C53        -1.5680   -0.9780   -0.8860 c         1 MOL      0.491458
    159 O21        -0.5410   -1.4120   -0.2540 o         1 MOL     -0.669692
    160 O22        -1.3820   -0.1330   -1.8170 o         1 MOL     -0.669692
    161 H72        -5.5040    0.6480   -1.0760 hn        1 MOL     -0.016881
    162 H73        -5.2710   -2.0010    0.1780 h1        1 MOL      0.093681
    163 H74        -3.0820   -0.7540    1.1210 hc        1 MOL      0.175446
    164 H75        -3.5290    0.3350   -0.2600 hc        1 MOL      0.175446
    165 H76        -3.3740   -1.6590   -1.7650 hc        1 MOL     -0.027537
    166 H77        -2.9390   -2.6450   -0.4190 hc        1 MOL     -0.027537
    167 N15        -6.3950    0.4340    1.9660 n         1 MOL     -0.043271
    168 C54        -6.9990    0.8030    3.2690 c3        1 MOL     -0.251939
    169 H78        -7.7250    0.0440    3.5610 h1        1 MOL      0.107199
    170 H79        -6.2180    0.8700    4.0270 h1        1 MOL      0.107199
    171 H80        -7.5000    1.7680    3.1770 h1        1 MOL      0.107199
    172 H81        -6.3780    1.1720    1.2720 hn        1 MOL      0.079167
    173 Ca1         1.4770   -0.4550   -1.5280 Ca        1 MOL      1.714161
    174 O23         1.1310   -0.7120   -4.0810 oh        1 MOL     -0.830292
    175 H82         0.3060   -0.5780   -4.5570 ho        1 MOL      0.392736
    176 H83         1.5710   -1.4100   -4.5660 ho        1 MOL      0.392736
    177 O24         0.9530    1.8500   -2.5730 oh        1 MOL     -0.830292
    178 H84         0.2100    2.3910   -2.3040 ho        1 MOL      0.392736
    179 H85         1.5290    2.4510   -3.0540 ho        1 MOL      0.392736
@<TRIPOS>BOND
     1    1    2 1   
     2    1    4 1   
     3    1    5 1   
     4    1    6 1   
     5    2    3 2   
     6    2    7 1   
     7    7    8 1   
     8    7   15 1   
     9    8    9 1   
    10    8   11 1   
    11    8   16 1   
    12    9   10 2   
    13    9   19 1   
    14   11   12 1   
    15   11   17 1   
    16   11   18 1   
    17   12   13 1   
    18   12   14 1   
    19   19   20 1   
    20   19   28 1   
    21   20   21 1   
    22   20   23 1   
    23   20   29 1   
    24   21   22 2   
    25   21   41 1   
    26   23   24 1   
    27   23   30 1   
    28   23   31 1   
    29   24   25 1   
    30   24   32 1   
    31   24   33 1   
    32   25   26 1   
    33   25   34 1   
    34   25   35 1   
    35   26   27 1   
    36   26   36 1   
    37   26   37 1   
    38   27   38 1   
    39   27   39 1   
    40   27   40 1   
    41   41   42 1   
    42   41   49 1   
    43   42   43 1   
    44   42   45 1   
    45   42   50 1   
    46   43   44 2   
    47   43   53 1   
    48   45   46 1   
    49   45   51 1   
    50   45   52 1   
    51   46   47 1   
    52   46   48 1   
    53   53   54 1   
    54   53   57 1   
    55   54   55 1   
    56   54   58 1   
    57   54   59 1   
    58   55   56 2   
    59   55   60 1   
    60   60   61 1   
    61   60   68 1   
    62   61   62 1   
    63   61   64 1   
    64   61   69 1   
    65   62   63 2   
    66   62   74 1   
    67   64   65 1   
    68   64   70 1   
    69   64   71 1   
    70   65   66 1   
    71   65   67 2   
    72   66   72 1   
    73   66   73 1   
    74   74   75 1   
    75   74   78 1   
    76   75   76 1   
    77   75   79 1   
    78   75   80 1   
    79   76   77 2   
    80   76   81 1   
    81   81   82 1   
    82   81   93 1   
    83   82   83 1   
    84   82   85 1   
    85   82   94 1   
    86   83   84 2   
    87   83  102 1   
    88   85   86 1   
    89   85   95 1   
    90   85   96 1   
    91   86   87 ar  
    92   86   88 ar  
    93   87   89 ar  
    94   87   97 1   
    95   88   90 ar  
    96   88   98 1   
    97   89   91 ar  
    98   89   99 1   
    99   90   91 ar  
   100   90  100 1   
   101   91   92 1   
   102   92  101 1   
   103  102  103 1   
   104  102  110 1   
   105  103  104 1   
   106  103  106 1   
   107  103  111 1   
   108  104  105 2   
   109  104  121 1   
   110  106  107 1   
   111  106  108 1   
   112  106  112 1   
   113  107  109 1   
   114  107  113 1   
   115  107  114 1   
   116  108  115 1   
   117  108  116 1   
   118  108  117 1   
   119  109  118 1   
   120  109  119 1   
   121  109  120 1   
   122  121  122 1   
   123  121  127 1   
   124  122  123 1   
   125  122  125 1   
   126  122  128 1   
   127  123  124 2   
   128  123  132 1   
   129  125  126 1   
   130  125  129 1   
   131  125  130 1   
   132  126  131 1   
   133  132  133 1   
   134  132  137 1   
   135  133  134 1   
   136  133  136 1   
   137  133  138 1   
   138  134  135 2   
   139  134  142 1   
   140  136  139 1   
   141  136  140 1   
   142  136  141 1   
   143  142  143 1   
   144  142  147 1   
   145  143  144 1   
   146  143  146 1   
   147  143  148 1   
   148  144  145 2   
   149  144  152 1   
   150  146  149 1   
   151  146  150 1   
   152  146  151 1   
   153  152  153 1   
   154  152  161 1   
   155  153  154 1   
   156  153  156 1   
   157  153  162 1   
   158  154  155 2   
   159  154  167 1   
   160  156  157 1   
   161  156  163 1   
   162  156  164 1   
   163  157  158 1   
   164  157  165 1   
   165  157  166 1   
   166  158  159 1   
   167  158  160 1   
   168  167  168 1   
   169  167  172 1   
   170  168  169 1   
   171  168  170 1   
   172  168  171 1   
   173  174  175 1   
   174  174  176 1   
   175  177  178 1   
   176  177  179 1   
@<TRIPOS>SUBSTRUCTURE
     1 MOL         1 TEMP              0 ****  ****    0 ROOT
