@<TRIPOS>MOLECULE
MOL
  189   185     1     0     0
SMALL
resp


@<TRIPOS>ATOM
      1 C1          0.0100    2.4530   -5.6360 c3        1 MOL     -0.203607
      2 C2          0.4850    2.4610   -4.1230 c         1 MOL      0.712260
      3 O1         -0.2760    2.9260   -3.2690 o         1 MOL     -0.589918
      4 H1          0.8530    2.6970   -6.2820 hc        1 MOL      0.048498
      5 H2         -0.3690    1.4630   -5.8920 hc        1 MOL      0.048498
      6 H3         -0.7790    3.1910   -5.7730 hc        1 MOL      0.048498
      7 N1          1.7500    2.0230   -3.8590 n         1 MOL     -0.683252
      8 C3          2.2840    1.6500   -2.5010 c3        1 MOL      0.329349
      9 C4          2.9810    2.8290   -1.8650 c         1 MOL      0.492742
     10 O2          4.0550    3.2590   -2.2700 o         1 MOL     -0.553578
     11 C5          3.0930    0.3120   -2.5580 c3        1 MOL     -0.374933
     12 C6          3.7940    0.0260   -1.2190 c         1 MOL      0.702124
     13 O3          4.7030   -0.8300   -1.1630 o         1 MOL     -0.628970
     14 O4          3.4300    0.5510   -0.1530 o         1 MOL     -0.628970
     15 H4          2.3180    1.6400   -4.6070 hn        1 MOL      0.334554
     16 H5          1.4000    1.4610   -1.8760 h1        1 MOL      0.004552
     17 H6          3.8160    0.4700   -3.3600 hc        1 MOL      0.080714
     18 H7          2.4220   -0.4470   -2.9620 hc        1 MOL      0.080714
     19 N2          2.2510    3.5340   -0.9350 n         1 MOL     -0.575717
     20 C7          2.7540    4.7750   -0.2610 c3        1 MOL      0.135046
     21 C8          3.6310    4.6100    0.9310 c         1 MOL      0.452265
     22 O5          4.0350    5.6320    1.3570 o         1 MOL     -0.558062
     23 C9          1.5440    5.7730    0.0220 c3        1 MOL      0.071541
     24 C10         0.7980    6.1700   -1.2520 c3        1 MOL     -0.078118
     25 C11         1.7080    6.4900   -2.4690 c3        1 MOL     -0.120196
     26 C12         0.8610    6.8460   -3.7090 c3        1 MOL      0.061255
     27 N3          1.6990    7.4320   -4.7590 n4        1 MOL     -0.264027
     28 H8          1.3980    3.1290   -0.5660 hn        1 MOL      0.381395
     29 H9          3.4740    5.3110   -0.8780 h1        1 MOL      0.048494
     30 H10         2.0710    6.6980    0.2450 hc        1 MOL      0.001253
     31 H11         0.9070    5.4530    0.8480 hc        1 MOL      0.001253
     32 H12         0.2680    7.1000   -1.0530 hc        1 MOL      0.049203
     33 H13         0.0390    5.4170   -1.4790 hc        1 MOL      0.049203
     34 H14         2.3650    5.6810   -2.8040 hc        1 MOL      0.062822
     35 H15         2.4210    7.3020   -2.3320 hc        1 MOL      0.062822
     36 H16         0.1970    7.5700   -3.2330 hx        1 MOL      0.059210
     37 H17         0.3170    5.9970   -4.1080 hx        1 MOL      0.059210
     38 H18         2.5550    6.9420   -4.9600 hn        1 MOL      0.300948
     39 H19         1.1870    7.5620   -5.6210 hn        1 MOL      0.300948
     40 H20         1.9370    8.3710   -4.4630 hn        1 MOL      0.300948
     41 N4          3.8820    3.3960    1.3930 n         1 MOL      0.138128
     42 C13         4.8620    3.0680    2.4030 c3        1 MOL     -0.328476
     43 C14         6.1960    2.6870    1.8620 c         1 MOL      0.508468
     44 O6          7.2840    2.8850    2.4720 o         1 MOL     -0.488019
     45 C15         4.4130    2.0760    3.4530 c3        1 MOL      0.260982
     46 C16         2.8820    2.2080    3.7460 c         1 MOL      0.513464
     47 O7          2.0870    1.6010    2.9680 o         1 MOL     -0.624770
     48 O8          2.4850    2.8070    4.7780 o         1 MOL     -0.624770
     49 H21         3.5880    2.6230    0.8100 hn        1 MOL     -0.184796
     50 H22         4.8960    4.0140    2.9560 h1        1 MOL      0.104094
     51 H23         4.9360    2.1690    4.4010 hc        1 MOL     -0.042470
     52 H24         4.5620    1.0610    3.0680 hc        1 MOL     -0.042470
     53 N5          6.2020    2.1100    0.6270 n         1 MOL     -0.344973
     54 C17         7.3820    1.3620    0.1770 c3        1 MOL     -0.216671
     55 C18         7.6480    0.1540    1.0480 c         1 MOL      0.401420
     56 O9          8.7370    0.0520    1.6430 o         1 MOL     -0.525710
     57 H25         5.3570    2.1050    0.0570 hn        1 MOL      0.314489
     58 H26         8.2790    1.9540    0.3640 h1        1 MOL      0.117423
     59 H27         7.2770    0.8840   -0.7940 h1        1 MOL      0.117423
     60 N6          6.6440   -0.7340    1.1890 n         1 MOL     -0.075651
     61 C19         6.6690   -2.0660    1.8730 c3        1 MOL     -0.062172
     62 C20         6.4980   -3.2550    1.0030 c         1 MOL      0.422602
     63 O10         6.2750   -4.3680    1.4610 o         1 MOL     -0.495270
     64 C21         5.6610   -2.1120    2.9640 c3        1 MOL     -0.072649
     65 C22         4.2030   -1.8660    2.4670 c         1 MOL      0.769238
     66 O11         3.3350   -1.2420    3.1550 o         1 MOL     -0.768832
     67 O12         3.8400   -2.3230    1.3480 o         1 MOL     -0.768832
     68 H28         5.8450   -0.7050    0.5680 hn        1 MOL      0.189758
     69 H29         7.6940   -2.1600    2.2470 h1        1 MOL      0.088250
     70 H30         5.9190   -1.2840    3.6260 hc        1 MOL      0.033082
     71 H31         5.6610   -2.9990    3.5970 hc        1 MOL      0.033082
     72 N7          6.6260   -3.1500   -0.3170 n         1 MOL     -0.364844
     73 C23         6.4130   -4.2800   -1.3000 c3        1 MOL     -0.189698
     74 C24         4.9940   -4.8310   -1.4310 c         1 MOL      0.504470
     75 O13         4.8350   -5.9430   -1.9530 o         1 MOL     -0.572549
     76 H32         6.7270   -2.2080   -0.6590 hn        1 MOL      0.245914
     77 H33         7.0860   -5.0590   -0.9350 h1        1 MOL      0.130143
     78 H34         6.8210   -3.8850   -2.2320 h1        1 MOL      0.130143
     79 N8          3.9940   -4.1850   -0.8780 n         1 MOL     -0.151341
     80 C25         2.5500   -4.6610   -0.7800 c3        1 MOL     -0.338215
     81 C26         1.4300   -3.5890   -0.9840 c         1 MOL      0.747238
     82 O14         1.4940   -2.5490   -0.3780 o         1 MOL     -0.547928
     83 C27         2.3980   -5.4500    0.5400 c3        1 MOL      0.440350
     84 C28         3.2530   -6.7590    0.6990 c3        1 MOL     -0.355285
     85 O15         2.6860   -4.7230    1.7310 oh        1 MOL     -0.604166
     86 H35         4.2320   -3.2560   -0.5370 hn        1 MOL      0.203630
     87 H36         2.4140   -5.5300   -1.4260 h1        1 MOL      0.103118
     88 H37         1.3600   -5.7980    0.6270 h1        1 MOL     -0.012175
     89 H38         3.2480   -4.0050    1.4500 ho        1 MOL      0.379986
     90 H39         4.1750   -6.5610    1.2410 hc        1 MOL      0.096810
     91 H40         2.7340   -7.5800    1.1980 hc        1 MOL      0.096810
     92 H41         3.6090   -7.1140   -0.2630 hc        1 MOL      0.096810
     93 N9          0.3890   -4.0180   -1.7220 n         1 MOL     -0.622227
     94 C29        -0.8490   -3.1980   -1.8840 c3        1 MOL      0.009219
     95 C30        -2.1490   -3.6480   -1.1680 c         1 MOL      0.627083
     96 O16        -2.5810   -4.7820   -1.2500 o         1 MOL     -0.558885
     97 C31        -1.1360   -2.9420   -3.3510 c3        1 MOL      0.151910
     98 C32        -0.0630   -2.1200   -4.0630 c3        1 MOL      0.075942
     99 C33        -2.4650   -2.2180   -3.6150 c3        1 MOL     -0.250899
    100 C34         0.0410   -2.3520   -5.5840 c3        1 MOL     -0.289426
    101 H42         0.3890   -4.9050   -2.2140 hn        1 MOL      0.343476
    102 H43        -0.4980   -2.2280   -1.5480 h1        1 MOL      0.057172
    103 H44        -1.1540   -3.9210   -3.8360 hc        1 MOL     -0.001668
    104 H45         0.8900   -2.4130   -3.6290 hc        1 MOL      0.022211
    105 H46        -0.2050   -1.0590   -3.8190 hc        1 MOL      0.022211
    106 H47        -2.4550   -1.2450   -3.1270 hc        1 MOL      0.043679
    107 H48        -2.5920   -2.0970   -4.6900 hc        1 MOL      0.043679
    108 H49        -3.2710   -2.8440   -3.2290 hc        1 MOL      0.043679
    109 H50        -0.7170   -1.8030   -6.1530 hc        1 MOL      0.068884
    110 H51         0.9610   -2.0300   -6.0720 hc        1 MOL      0.068884
    111 H52        -0.0910   -3.4060   -5.8200 hc        1 MOL      0.068884
    112 N10        -2.7210   -2.7040   -0.3690 n         1 MOL     -0.340865
    113 C35        -3.9290   -2.8460    0.4650 c3        1 MOL     -0.017668
    114 C36        -5.2230   -2.4560   -0.2570 c         1 MOL      0.302674
    115 O17        -5.1300   -1.5750   -1.1210 o         1 MOL     -0.213600
    116 C37        -3.8740   -1.9050    1.7260 c3        1 MOL      0.024339
    117 C38        -2.8410   -2.3070    2.7230 c3        1 MOL     -0.143479
    118 O18        -3.6820   -0.5440    1.4300 oh        1 MOL     -0.263611
    119 H53        -2.3990   -1.7570   -0.5080 hn        1 MOL      0.229230
    120 H54        -4.0030   -3.8520    0.8710 h1        1 MOL      0.117019
    121 H55        -4.8030   -2.0070    2.2840 h1        1 MOL      0.051154
    122 H56        -3.0000   -0.2030    2.0200 ho        1 MOL      0.342902
    123 H57        -3.0440   -1.8880    3.7170 hc        1 MOL      0.054359
    124 H58        -2.8940   -3.3850    2.8360 hc        1 MOL      0.054359
    125 H59        -1.8600   -1.9350    2.3980 hc        1 MOL      0.054359
    126 N11        -6.4540   -2.9000    0.1340 n         1 MOL     -0.296077
    127 C39        -7.7170   -2.3420   -0.2790 c3        1 MOL     -0.271110
    128 C40        -7.8280   -0.8100   -0.1590 c         1 MOL      0.336767
    129 O19        -8.5000   -0.1950   -0.9680 o         1 MOL     -0.475457
    130 C41        -9.0590   -2.9800    0.1580 c3        1 MOL      0.410013
    131 C42        -9.2480   -4.3120   -0.5210 c3        1 MOL     -0.385370
    132 O20        -9.0460   -3.2340    1.5600 oh        1 MOL     -0.626079
    133 H60        -6.5370   -3.6020    0.8530 hn        1 MOL      0.284164
    134 H61        -7.6360   -2.4530   -1.3610 h1        1 MOL      0.178129
    135 H62        -9.9300   -2.3660   -0.0640 h1        1 MOL      0.048125
    136 H63        -9.6240   -2.7430    2.1430 ho        1 MOL      0.397540
    137 H64        -9.1910   -4.2090   -1.6120 hc        1 MOL      0.109953
    138 H65        -8.4620   -4.9120   -0.0710 hc        1 MOL      0.109953
    139 H66       -10.1500   -4.8270   -0.1860 hc        1 MOL      0.109953
    140 N12        -7.0380   -0.1830    0.7630 n         1 MOL     -0.136866
    141 C43        -6.9720    1.1820    1.1640 c3        1 MOL     -0.028633
    142 C44        -5.9160    2.0140    0.4320 c         1 MOL      0.501534
    143 O21        -6.1580    3.1930    0.2640 o         1 MOL     -0.583830
    144 C45        -6.8050    1.2050    2.6470 c3        1 MOL      0.029405
    145 C46        -7.0600    2.6190    3.2670 c3        1 MOL      0.014979
    146 C47        -6.8230    2.4940    4.7640 c3        1 MOL      0.075362
    147 C48        -7.3970    3.5930    5.5630 c3        1 MOL      0.106356
    148 N13        -7.0810    3.5940    7.0080 n4        1 MOL     -0.352025
    149 H67        -6.5240   -0.8140    1.3680 hn        1 MOL      0.148943
    150 H68        -7.9510    1.6140    0.9530 h1        1 MOL      0.097951
    151 H69        -5.7960    0.9060    2.9220 hc        1 MOL     -0.016643
    152 H70        -7.5030    0.4900    3.0850 hc        1 MOL     -0.016643
    153 H71        -8.1120    2.8380    3.0880 hc        1 MOL      0.013011
    154 H72        -6.4560    3.3810    2.7640 hc        1 MOL      0.013011
    155 H73        -5.7390    2.5080    4.9150 hc        1 MOL     -0.003008
    156 H74        -7.1700    1.5330    5.1560 hc        1 MOL     -0.003008
    157 H75        -8.4850    3.5150    5.4720 hx        1 MOL      0.046254
    158 H76        -7.0660    4.5370    5.1370 hx        1 MOL      0.046254
    159 H77        -6.1100    3.7320    7.2790 hn        1 MOL      0.302516
    160 H78        -7.5530    4.3930    7.4090 hn        1 MOL      0.302516
    161 H79        -7.4260    2.7550    7.4410 hn        1 MOL      0.302516
    162 N14        -5.0260    1.3830   -0.2480 n         1 MOL      0.071621
    163 C49        -4.1550    1.8520   -1.3160 c3        1 MOL     -0.145310
    164 C50        -4.8470    1.7400   -2.6770 c         1 MOL      0.542891
    165 O22        -4.9110    2.7080   -3.4330 o         1 MOL     -0.576172
    166 C51        -2.7870    1.1640   -1.3260 c3        1 MOL      0.047124
    167 C52        -1.8940    1.8150   -0.1900 c3        1 MOL     -0.006304
    168 C53        -0.6040    1.0180    0.0390 c         1 MOL      0.693744
    169 O23         0.4830    1.5820    0.3590 o         1 MOL     -0.754598
    170 O24        -0.6580   -0.2390    0.0410 o         1 MOL     -0.754598
    171 H80        -4.9800    0.4490    0.1320 hn        1 MOL     -0.303303
    172 H81        -3.9990    2.9300   -1.3470 h1        1 MOL      0.067933
    173 H82        -2.3820    1.3830   -2.3060 hc        1 MOL      0.024572
    174 H83        -3.0100    0.1030   -1.2010 hc        1 MOL      0.024572
    175 H84        -2.4430    1.9560    0.7460 hc        1 MOL      0.018200
    176 H85        -1.5970    2.8600   -0.3280 hc        1 MOL      0.018200
    177 N15        -5.3460    0.5730   -2.9680 n         1 MOL     -0.158249
    178 C54        -6.1030    0.1970   -4.1890 c3        1 MOL     -0.200498
    179 H86        -7.1560    0.0700   -3.9390 h1        1 MOL      0.091228
    180 H87        -6.0000    0.9830   -4.9380 h1        1 MOL      0.091228
    181 H88        -5.7100   -0.7390   -4.5870 h1        1 MOL      0.091228
    182 H89        -5.1810   -0.1460   -2.2710 hn        1 MOL      0.120657
    183 Ca1         1.6580   -0.4730    1.3860 Ca        1 MOL      1.740505
    184 O25        -0.2630    0.3290    3.1890 oh        1 MOL     -0.861231
    185 H90        -0.7340    0.0260    3.9620 ho        1 MOL      0.401699
    186 H91         0.4400    0.8760    3.5270 ho        1 MOL      0.401699
    187 O26         0.8930   -2.5790    2.7140 oh        1 MOL     -0.861231
    188 H92         0.7580   -2.7190    3.6520 ho        1 MOL      0.401699
    189 H93         1.6160   -3.1670    2.4960 ho        1 MOL      0.401699
@<TRIPOS>BOND
     1    1    2 1   
     2    1    4 1   
     3    1    5 1   
     4    1    6 1   
     5    2    3 2   
     6    2    7 1   
     7    7    8 1   
     8    7   15 1   
     9    8    9 1   
    10    8   11 1   
    11    8   16 1   
    12    9   10 2   
    13    9   19 1   
    14   11   12 1   
    15   11   17 1   
    16   11   18 1   
    17   12   13 1   
    18   12   14 1   
    19   19   20 1   
    20   19   28 1   
    21   20   21 1   
    22   20   23 1   
    23   20   29 1   
    24   21   22 2   
    25   21   41 1   
    26   23   24 1   
    27   23   30 1   
    28   23   31 1   
    29   24   25 1   
    30   24   32 1   
    31   24   33 1   
    32   25   26 1   
    33   25   34 1   
    34   25   35 1   
    35   26   27 1   
    36   26   36 1   
    37   26   37 1   
    38   27   38 1   
    39   27   39 1   
    40   27   40 1   
    41   41   42 1   
    42   41   49 1   
    43   42   43 1   
    44   42   45 1   
    45   42   50 1   
    46   43   44 2   
    47   43   53 1   
    48   45   46 1   
    49   45   51 1   
    50   45   52 1   
    51   46   47 1   
    52   46   48 1   
    53   53   54 1   
    54   53   57 1   
    55   54   55 1   
    56   54   58 1   
    57   54   59 1   
    58   55   56 2   
    59   55   60 1   
    60   60   61 1   
    61   60   68 1   
    62   61   62 1   
    63   61   64 1   
    64   61   69 1   
    65   62   63 2   
    66   62   72 1   
    67   64   65 1   
    68   64   70 1   
    69   64   71 1   
    70   65   66 1   
    71   65   67 1   
    72   72   73 1   
    73   72   76 1   
    74   73   74 1   
    75   73   77 1   
    76   73   78 1   
    77   74   75 2   
    78   74   79 1   
    79   79   80 1   
    80   79   86 1   
    81   80   81 1   
    82   80   83 1   
    83   80   87 1   
    84   81   82 2   
    85   81   93 1   
    86   83   84 1   
    87   83   85 1   
    88   83   88 1   
    89   84   90 1   
    90   84   91 1   
    91   84   92 1   
    92   85   89 1   
    93   93   94 1   
    94   93  101 1   
    95   94   95 1   
    96   94   97 1   
    97   94  102 1   
    98   95   96 2   
    99   95  112 1   
   100   97   98 1   
   101   97   99 1   
   102   97  103 1   
   103   98  100 1   
   104   98  104 1   
   105   98  105 1   
   106   99  106 1   
   107   99  107 1   
   108   99  108 1   
   109  100  109 1   
   110  100  110 1   
   111  100  111 1   
   112  112  113 1   
   113  112  119 1   
   114  113  114 1   
   115  113  116 1   
   116  113  120 1   
   117  114  115 2   
   118  114  126 1   
   119  116  117 1   
   120  116  118 1   
   121  116  121 1   
   122  117  123 1   
   123  117  124 1   
   124  117  125 1   
   125  118  122 1   
   126  126  127 1   
   127  126  133 1   
   128  127  128 1   
   129  127  130 1   
   130  127  134 1   
   131  128  129 2   
   132  128  140 1   
   133  130  131 1   
   134  130  132 1   
   135  130  135 1   
   136  131  137 1   
   137  131  138 1   
   138  131  139 1   
   139  132  136 1   
   140  140  141 1   
   141  140  149 1   
   142  141  142 1   
   143  141  144 1   
   144  141  150 1   
   145  142  143 2   
   146  142  162 1   
   147  144  145 1   
   148  144  151 1   
   149  144  152 1   
   150  145  146 1   
   151  145  153 1   
   152  145  154 1   
   153  146  147 1   
   154  146  155 1   
   155  146  156 1   
   156  147  148 1   
   157  147  157 1   
   158  147  158 1   
   159  148  159 1   
   160  148  160 1   
   161  148  161 1   
   162  162  163 1   
   163  162  171 1   
   164  163  164 1   
   165  163  166 1   
   166  163  172 1   
   167  164  165 2   
   168  164  177 1   
   169  166  167 1   
   170  166  173 1   
   171  166  174 1   
   172  167  168 1   
   173  167  175 1   
   174  167  176 1   
   175  168  169 1   
   176  168  170 1   
   177  177  178 1   
   178  177  182 1   
   179  178  179 1   
   180  178  180 1   
   181  178  181 1   
   182  184  185 1   
   183  184  186 1   
   184  187  188 1   
   185  187  189 1   
@<TRIPOS>SUBSTRUCTURE
     1 MOL         1 TEMP              0 ****  ****    0 ROOT
