@<TRIPOS>MOLECULE
MOL
  172   171     1     0     0
SMALL
resp


@<TRIPOS>ATOM
      1 C1          0.7360    3.9480    5.4310 c3        1 MOL     -0.281827
      2 C2          0.1100    3.9060    4.0480 c         1 MOL      0.708971
      3 O1          0.7670    4.3310    3.0910 o         1 MOL     -0.568168
      4 H1          0.9850    2.9350    5.7470 hc        1 MOL      0.068763
      5 H2          1.6420    4.5520    5.4020 hc        1 MOL      0.068763
      6 H3          0.0300    4.3850    6.1370 hc        1 MOL      0.068763
      7 N1         -1.1680    3.6190    3.8560 n         1 MOL     -0.600839
      8 C3         -1.9580    3.4130    2.6380 c3        1 MOL      0.295238
      9 C4         -2.2540    4.7550    1.7540 c         1 MOL      0.487278
     10 O2         -2.7110    5.7940    2.2230 o         1 MOL     -0.577445
     11 C5         -3.2860    2.6360    2.9230 c3        1 MOL     -0.385228
     12 C6         -4.0820    2.1260    1.7850 c         1 MOL      0.747362
     13 O3         -3.5140    2.0630    0.6710 o         1 MOL     -0.645793
     14 O4         -5.2550    1.8960    1.9210 o         1 MOL     -0.645793
     15 H4         -1.7500    3.4430    4.6650 hn        1 MOL      0.290686
     16 H5         -1.4510    2.6780    2.0060 h1        1 MOL     -0.010218
     17 H6         -3.9640    3.3080    3.4460 hc        1 MOL      0.070824
     18 H7         -3.0410    1.8300    3.6250 hc        1 MOL      0.070824
     19 N2         -2.3110    4.5830    0.4360 n         1 MOL     -0.412306
     20 C7         -2.6390    5.6040   -0.5220 c3        1 MOL      0.369335
     21 C8         -3.6950    5.1500   -1.6390 c         1 MOL      0.440368
     22 O5         -4.1180    6.0000   -2.4170 o         1 MOL     -0.564081
     23 C9         -1.3080    6.0820   -1.1200 c3        1 MOL     -0.333003
     24 H8         -2.0490    3.6720    0.0950 hn        1 MOL      0.264384
     25 H9         -3.1380    6.4700   -0.0990 h1        1 MOL      0.009040
     26 H10        -0.9330    5.4280   -1.9040 hc        1 MOL      0.074399
     27 H11        -1.5360    7.0520   -1.5620 hc        1 MOL      0.074399
     28 H12        -0.5120    6.0310   -0.3810 hc        1 MOL      0.074399
     29 N3         -4.1500    3.9110   -1.6010 n         1 MOL     -0.501483
     30 C10        -5.0240    3.3240   -2.6570 c3        1 MOL      0.378305
     31 C11        -6.3160    2.6570   -2.1720 c         1 MOL      0.318652
     32 O6         -7.2560    2.7400   -2.9270 o         1 MOL     -0.546614
     33 C12        -4.2030    2.3810   -3.5520 c3        1 MOL     -0.214741
     34 C13        -3.3790    1.3520   -2.7830 c         1 MOL      0.703860
     35 O7         -2.1080    1.2910   -2.8430 o         1 MOL     -0.703670
     36 O8         -3.9230    0.5980   -1.9890 o         1 MOL     -0.703670
     37 H13        -3.8480    3.2880   -0.8680 hn        1 MOL      0.241203
     38 H14        -5.4290    4.0860   -3.3270 h1        1 MOL      0.019050
     39 H15        -3.5740    2.9490   -4.2250 hc        1 MOL      0.037949
     40 H16        -4.9300    1.8170   -4.1400 hc        1 MOL      0.037949
     41 N4         -6.4290    2.1010   -0.9880 n         1 MOL     -0.137714
     42 C14        -7.5660    1.2970   -0.5410 c3        1 MOL     -0.265099
     43 C15        -7.4960   -0.1640   -0.9130 c         1 MOL      0.469489
     44 O9         -8.4930   -0.8870   -0.8850 o         1 MOL     -0.605914
     45 H17        -5.6020    2.1400   -0.3970 hn        1 MOL      0.136841
     46 H18        -8.4530    1.6560   -1.0540 h1        1 MOL      0.137466
     47 H19        -7.7330    1.3780    0.5320 h1        1 MOL      0.137466
     48 N5         -6.3450   -0.6520   -1.3250 n         1 MOL      0.012877
     49 C16        -6.2610   -2.0050   -1.8900 c3        1 MOL     -0.219832
     50 C17        -6.3840   -3.1700   -0.9040 c         1 MOL      0.513572
     51 O10        -6.4990   -4.3340   -1.3500 o         1 MOL     -0.538781
     52 C18        -5.0790   -2.1540   -2.8520 c3        1 MOL      0.034984
     53 C19        -3.6890   -2.3120   -2.2910 c         1 MOL      0.526899
     54 N6         -2.7840   -2.4530   -3.1670 n         1 MOL     -0.602434
     55 O11        -3.3550   -2.4750   -1.1020 o         1 MOL     -0.481621
     56 H20        -5.5340   -0.0560   -1.3590 hn        1 MOL      0.079471
     57 H21        -7.1160   -2.0920   -2.5550 h1        1 MOL      0.134306
     58 H22        -5.1130   -1.3470   -3.5900 hc        1 MOL      0.022759
     59 H23        -5.3520   -2.9970   -3.4760 hc        1 MOL      0.022759
     60 H24        -2.9240   -2.1840   -4.1300 hn        1 MOL      0.318253
     61 H25        -1.8300   -2.3660   -2.8320 hn        1 MOL      0.318253
     62 N7         -6.3130   -2.9800    0.4230 n         1 MOL     -0.365143
     63 C20        -6.2210   -3.9200    1.5710 c3        1 MOL     -0.095542
     64 C21        -4.7880   -4.4730    1.8970 c         1 MOL      0.515791
     65 O12        -4.7320   -5.4340    2.6440 o         1 MOL     -0.573664
     66 H26        -6.1260   -2.0120    0.6460 hn        1 MOL      0.252511
     67 H27        -6.7520   -4.8240    1.2840 h1        1 MOL      0.096263
     68 H28        -6.6730   -3.5860    2.5040 h1        1 MOL      0.096263
     69 N8         -3.7320   -3.8320    1.3560 n         1 MOL     -0.303043
     70 C22        -2.3820   -4.4030    1.4940 c3        1 MOL     -0.239048
     71 C23        -1.3100   -3.3510    1.5360 c         1 MOL      0.563782
     72 O13        -1.3420   -2.3230    0.8780 o         1 MOL     -0.544234
     73 C24        -2.0010   -5.4140    0.3760 c3        1 MOL      0.511806
     74 C25        -2.8040   -6.6880    0.5410 c3        1 MOL     -0.388938
     75 O14        -2.3720   -4.9260   -0.9490 oh        1 MOL     -0.636146
     76 H29        -3.8700   -3.0030    0.7910 hn        1 MOL      0.351357
     77 H30        -2.2960   -4.9760    2.4140 h1        1 MOL      0.099609
     78 H31        -0.9280   -5.5650    0.4730 h1        1 MOL     -0.018649
     79 H32        -2.5940   -4.0000   -0.8700 ho        1 MOL      0.349343
     80 H33        -2.6200   -7.0770    1.5420 hc        1 MOL      0.092389
     81 H34        -3.8420   -6.3800    0.3910 hc        1 MOL      0.092389
     82 H35        -2.4670   -7.5270   -0.0550 hc        1 MOL      0.092389
     83 N9         -0.1870   -3.6760    2.1910 n         1 MOL     -0.553413
     84 C26         0.9680   -2.8630    2.0960 c3        1 MOL      0.129075
     85 C27         1.5450   -3.0040    0.6730 c         1 MOL      0.516010
     86 O15         1.7520   -4.1470    0.2810 o         1 MOL     -0.582723
     87 C28         2.0070   -3.2950    3.1230 c3        1 MOL      0.058661
     88 C29         1.4950   -3.1430    4.5780 c3        1 MOL     -0.051445
     89 C30         3.3280   -2.5050    2.9610 c3        1 MOL     -0.200169
     90 C31         1.1570   -1.7410    5.0640 c3        1 MOL     -0.254245
     91 H36        -0.2030   -4.4800    2.7970 hn        1 MOL      0.300258
     92 H37         0.8170   -1.8080    2.3010 h1        1 MOL      0.097788
     93 H38         2.2020   -4.3520    2.9780 hc        1 MOL     -0.005042
     94 H39         2.3090   -3.5610    5.1840 hc        1 MOL      0.021477
     95 H40         0.6870   -3.8620    4.7630 hc        1 MOL      0.021477
     96 H41         4.0040   -2.8890    2.1960 hc        1 MOL      0.041559
     97 H42         3.0900   -1.4520    2.7970 hc        1 MOL      0.041559
     98 H43         3.8090   -2.4960    3.9390 hc        1 MOL      0.041559
     99 H44         0.7220   -1.8420    6.0570 hc        1 MOL      0.069028
    100 H45         2.0920   -1.2330    5.3040 hc        1 MOL      0.069028
    101 H46         0.4910   -1.1660    4.4180 hc        1 MOL      0.069028
    102 N10         1.6950   -1.8660    0.0080 n         1 MOL     -0.086132
    103 C32         2.5480   -1.7890   -1.2350 c3        1 MOL      0.014958
    104 C33         3.9970   -1.3750   -0.8810 c         1 MOL      0.224760
    105 O16         4.3090   -0.8620    0.1930 o         1 MOL     -0.151235
    106 C34         1.8500   -0.8950   -2.2580 c3        1 MOL     -0.171864
    107 C35         0.4050   -1.4130   -2.5990 c         1 MOL      0.702077
    108 O17        -0.5570   -1.2780   -1.7880 o         1 MOL     -0.660449
    109 O18         0.2230   -1.7710   -3.7600 o         1 MOL     -0.660449
    110 H47         1.1670   -1.0610    0.3010 hn        1 MOL      0.002422
    111 H48         2.5140   -2.7590   -1.7330 h1        1 MOL      0.059317
    112 H49         2.4790   -0.7830   -3.1390 hc        1 MOL      0.038327
    113 H50         1.7760    0.1470   -1.9340 hc        1 MOL      0.038327
    114 N11         4.9270   -1.5850   -1.8550 n         1 MOL     -0.438634
    115 C36         6.4000   -1.4130   -1.5940 c3        1 MOL      0.127964
    116 C37         6.7380   -0.0060   -1.0500 c         1 MOL      0.473640
    117 O19         7.4140    0.0310   -0.0120 o         1 MOL     -0.501852
    118 C38         7.1370   -1.8230   -2.8430 c3        1 MOL     -0.125222
    119 C39         8.6090   -1.6870   -2.6100 ca        1 MOL      0.001577
    120 C40         9.3070   -2.5410   -1.7310 ca        1 MOL     -0.101335
    121 C41         9.2930   -0.6030   -3.1620 ca        1 MOL     -0.101335
    122 C42        10.6420   -2.3770   -1.5500 ca        1 MOL     -0.144276
    123 C43        10.6860   -0.4820   -2.9990 ca        1 MOL     -0.144276
    124 C44        11.3790   -1.3070   -2.1030 ca        1 MOL     -0.074315
    125 H51         4.6910   -2.0750   -2.7040 hn        1 MOL      0.302032
    126 H52         6.5560   -2.1460   -0.7920 h1        1 MOL      0.089230
    127 H53         6.8070   -1.2680   -3.7280 hc        1 MOL      0.056522
    128 H54         6.9540   -2.8820   -2.9960 hc        1 MOL      0.056522
    129 H55         8.7910   -3.2440   -1.0910 ha        1 MOL      0.106922
    130 H56         8.8100    0.1370   -3.7840 ha        1 MOL      0.106922
    131 H57        11.1600   -3.0810   -0.9230 ha        1 MOL      0.105317
    132 H58        11.1820    0.3010   -3.5530 ha        1 MOL      0.105317
    133 H59        12.4270   -1.1590   -1.8900 ha        1 MOL      0.097992
    134 N12         6.1940    1.0870   -1.6220 n         1 MOL     -0.223828
    135 C45         6.4940    2.4340   -1.0630 c3        1 MOL      0.059222
    136 C46         5.8430    2.6690    0.3060 c         1 MOL      0.313365
    137 O20         6.4020    3.3630    1.1220 o         1 MOL     -0.491875
    138 C47         6.0090    3.5090   -2.0400 c3        1 MOL     -0.152591
    139 C48         4.8000    2.8080   -2.7070 c3        1 MOL      0.122083
    140 C49         5.2410    1.3700   -2.7830 c3        1 MOL     -0.125853
    141 H60         7.5600    2.5410   -0.8550 h1        1 MOL      0.068169
    142 H61         5.6290    4.4090   -1.5590 hc        1 MOL      0.059312
    143 H62         6.8510    3.7260   -2.7020 hc        1 MOL      0.059312
    144 H63         3.9720    3.0020   -2.0240 hc        1 MOL      0.001479
    145 H64         4.6120    3.2260   -3.6910 hc        1 MOL      0.001479
    146 H65         4.3900    0.6850   -2.7380 h1        1 MOL      0.069986
    147 H66         5.6970    1.2460   -3.7680 h1        1 MOL      0.069986
    148 N13         4.6790    2.0260    0.5640 n         1 MOL     -0.107733
    149 C50         4.0200    2.0280    1.8650 c3        1 MOL     -0.112229
    150 C51         4.9000    1.2530    2.8830 c         1 MOL      0.448135
    151 O21         5.1520    1.6840    3.9980 o         1 MOL     -0.569049
    152 C52         2.6920    1.4400    1.7490 c3        1 MOL     -0.047707
    153 C53         1.8280    2.2250    0.7170 c3        1 MOL      0.037120
    154 C54         0.5050    1.6140    0.4760 c         1 MOL      0.716212
    155 O22        -0.3810    2.1500   -0.2120 o         1 MOL     -0.781151
    156 O23         0.1830    0.4830    0.9690 o         1 MOL     -0.781151
    157 H67         4.2950    1.5170   -0.2220 hn        1 MOL      0.222932
    158 H68         3.8440    3.0600    2.1720 h1        1 MOL      0.091422
    159 H69         2.1870    1.6760    2.6860 hc        1 MOL      0.022813
    160 H70         2.7080    0.3810    1.4990 hc        1 MOL      0.022813
    161 H71         2.3400    2.3060   -0.2440 hc        1 MOL      0.021624
    162 H72         1.7080    3.2810    0.9740 hc        1 MOL      0.021624
    163 N14         5.5670    0.2220    2.4010 n         1 MOL      0.073866
    164 C55         6.6670   -0.4510    3.2330 c3        1 MOL     -0.236755
    165 H73         6.2960   -0.6390    4.2410 h1        1 MOL      0.085815
    166 H74         6.9480   -1.3960    2.7690 h1        1 MOL      0.085815
    167 H75         7.5370    0.2040    3.2830 h1        1 MOL      0.085815
    168 H76         5.3360   -0.1260    1.4760 hn        1 MOL     -0.086506
    169 Ca1        -2.0850    0.1140   -0.2140 Ca        1 MOL      1.719042
    170 O24        -3.9580   -1.0580    1.5440 oh        1 MOL     -1.046894
    171 H77        -3.2750   -0.9890    2.2070 ho        1 MOL      0.458135
    172 H78        -4.7440   -0.7090    1.9670 ho        1 MOL      0.458135
@<TRIPOS>BOND
     1    1    2 1   
     2    1    4 1   
     3    1    5 1   
     4    1    6 1   
     5    2    3 2   
     6    2    7 1   
     7    7    8 1   
     8    7   15 1   
     9    8    9 1   
    10    8   11 1   
    11    8   16 1   
    12    9   10 2   
    13    9   19 1   
    14   11   12 1   
    15   11   17 1   
    16   11   18 1   
    17   12   13 1   
    18   12   14 1   
    19   19   20 1   
    20   19   24 1   
    21   20   21 1   
    22   20   23 1   
    23   20   25 1   
    24   21   22 2   
    25   21   29 1   
    26   23   26 1   
    27   23   27 1   
    28   23   28 1   
    29   29   30 1   
    30   29   37 1   
    31   30   31 1   
    32   30   33 1   
    33   30   38 1   
    34   31   32 2   
    35   31   41 1   
    36   33   34 1   
    37   33   39 1   
    38   33   40 1   
    39   34   35 1   
    40   34   36 1   
    41   41   42 1   
    42   41   45 1   
    43   42   43 1   
    44   42   46 1   
    45   42   47 1   
    46   43   44 2   
    47   43   48 1   
    48   48   49 1   
    49   48   56 1   
    50   49   50 1   
    51   49   52 1   
    52   49   57 1   
    53   50   51 2   
    54   50   62 1   
    55   52   53 1   
    56   52   58 1   
    57   52   59 1   
    58   53   54 1   
    59   53   55 2   
    60   54   60 1   
    61   54   61 1   
    62   62   63 1   
    63   62   66 1   
    64   63   64 1   
    65   63   67 1   
    66   63   68 1   
    67   64   65 2   
    68   64   69 1   
    69   69   70 1   
    70   69   76 1   
    71   70   71 1   
    72   70   73 1   
    73   70   77 1   
    74   71   72 2   
    75   71   83 1   
    76   73   74 1   
    77   73   75 1   
    78   73   78 1   
    79   74   80 1   
    80   74   81 1   
    81   74   82 1   
    82   75   79 1   
    83   83   84 1   
    84   83   91 1   
    85   84   85 1   
    86   84   87 1   
    87   84   92 1   
    88   85   86 2   
    89   85  102 1   
    90   87   88 1   
    91   87   89 1   
    92   87   93 1   
    93   88   90 1   
    94   88   94 1   
    95   88   95 1   
    96   89   96 1   
    97   89   97 1   
    98   89   98 1   
    99   90   99 1   
   100   90  100 1   
   101   90  101 1   
   102  102  103 1   
   103  102  110 1   
   104  103  104 1   
   105  103  106 1   
   106  103  111 1   
   107  104  105 2   
   108  104  114 1   
   109  106  107 1   
   110  106  112 1   
   111  106  113 1   
   112  107  108 1   
   113  107  109 1   
   114  114  115 1   
   115  114  125 1   
   116  115  116 1   
   117  115  118 1   
   118  115  126 1   
   119  116  117 2   
   120  116  134 1   
   121  118  119 1   
   122  118  127 1   
   123  118  128 1   
   124  119  120 ar  
   125  119  121 ar  
   126  120  122 ar  
   127  120  129 1   
   128  121  123 ar  
   129  121  130 1   
   130  122  124 ar  
   131  122  131 1   
   132  123  124 ar  
   133  123  132 1   
   134  124  133 1   
   135  134  135 1   
   136  134  140 1   
   137  135  136 1   
   138  135  138 1   
   139  135  141 1   
   140  136  137 2   
   141  136  148 1   
   142  138  139 1   
   143  138  142 1   
   144  138  143 1   
   145  139  140 1   
   146  139  144 1   
   147  139  145 1   
   148  140  146 1   
   149  140  147 1   
   150  148  149 1   
   151  148  157 1   
   152  149  150 1   
   153  149  152 1   
   154  149  158 1   
   155  150  151 2   
   156  150  163 1   
   157  152  153 1   
   158  152  159 1   
   159  152  160 1   
   160  153  154 1   
   161  153  161 1   
   162  153  162 1   
   163  154  155 1   
   164  154  156 1   
   165  163  164 1   
   166  163  168 1   
   167  164  165 1   
   168  164  166 1   
   169  164  167 1   
   170  170  171 1   
   171  170  172 1   
@<TRIPOS>SUBSTRUCTURE
     1 MOL         1 TEMP              0 ****  ****    0 ROOT
