@<TRIPOS>MOLECULE
MOL
  175   173     1     0     0
SMALL
resp


@<TRIPOS>ATOM
      1 C1          0.2020    3.7350    5.7650 c3        1 MOL     -0.423547
      2 C2         -0.3460    3.7470    4.3360 c         1 MOL      0.695096
      3 O1          0.4040    4.0750    3.4380 o         1 MOL     -0.527823
      4 H1          1.1160    3.1420    5.7990 hc        1 MOL      0.105446
      5 H2          0.4210    4.7560    6.0790 hc        1 MOL      0.105446
      6 H3         -0.5390    3.2990    6.4350 hc        1 MOL      0.105446
      7 N1         -1.6740    3.5830    4.1140 n         1 MOL     -0.646729
      8 C3         -2.2530    3.3480    2.7580 c3        1 MOL      0.146865
      9 C4         -2.1850    4.5930    1.8530 c         1 MOL      0.686978
     10 O2         -2.4380    5.7030    2.3640 o         1 MOL     -0.570112
     11 C5         -3.6880    2.8250    2.9350 c3        1 MOL     -0.358421
     12 C6         -4.3610    2.4460    1.6190 c         1 MOL      0.736209
     13 O3         -5.6360    2.4770    1.6270 o         1 MOL     -0.668182
     14 O4         -3.6960    2.1210    0.6100 o         1 MOL     -0.668182
     15 H4         -2.3120    3.5530    4.9030 hn        1 MOL      0.332252
     16 H5         -1.6950    2.5340    2.2920 h1        1 MOL      0.058710
     17 H6         -4.2950    3.6070    3.3830 hc        1 MOL      0.076566
     18 H7         -3.6730    1.9150    3.5370 hc        1 MOL      0.076566
     19 N2         -2.0460    4.3610    0.5130 n         1 MOL     -0.689331
     20 C7         -2.4250    5.3850   -0.4590 c3        1 MOL      0.358738
     21 C8         -3.4150    5.0300   -1.6310 c         1 MOL      0.361770
     22 O5         -3.6340    5.8370   -2.5670 o         1 MOL     -0.562618
     23 C9         -1.0840    5.9230   -1.0910 c3        1 MOL     -0.116223
     24 H8         -1.8140    3.4200    0.1920 hn        1 MOL      0.364957
     25 H9         -2.8540    6.2490    0.0460 h1        1 MOL     -0.007467
     26 H10        -0.5830    5.0710   -1.5660 hc        1 MOL      0.024721
     27 H11        -1.1450    6.7900   -1.7520 hc        1 MOL      0.024721
     28 H12        -0.4610    6.2600   -0.2680 hc        1 MOL      0.024721
     29 N3         -4.0730    3.8380   -1.6830 n         1 MOL     -0.271171
     30 C10        -4.9980    3.4440   -2.7280 c3        1 MOL     -0.019305
     31 C11        -6.1230    2.4680   -2.4090 c         1 MOL      0.311917
     32 O6         -6.7530    2.0280   -3.3710 o         1 MOL     -0.530246
     33 C12        -4.1000    2.7080   -3.8140 c3        1 MOL      0.008673
     34 C13        -3.1650    1.5730   -3.2240 c         1 MOL      0.596807
     35 O7         -3.5290    0.9850   -2.1740 o         1 MOL     -0.671100
     36 O8         -1.9900    1.4450   -3.7140 o         1 MOL     -0.671100
     37 H13        -3.8200    3.1930   -0.9440 hn        1 MOL      0.203542
     38 H14        -5.5180    4.2540   -3.2260 h1        1 MOL      0.102741
     39 H15        -3.5130    3.4500   -4.3330 hc        1 MOL      0.000763
     40 H16        -4.6920    2.2610   -4.6090 hc        1 MOL      0.000763
     41 N4         -6.3300    2.0340   -1.1590 n         1 MOL     -0.037317
     42 C14        -7.5110    1.2010   -0.7780 c3        1 MOL     -0.380829
     43 C15        -7.5850   -0.2290   -1.3290 c         1 MOL      0.560774
     44 O9         -8.6340   -0.9080   -1.1950 o         1 MOL     -0.617156
     45 H17        -5.8300    2.5510   -0.4510 hn        1 MOL      0.132503
     46 H18        -8.3130    1.7690   -1.2450 h1        1 MOL      0.146970
     47 H19        -7.6600    1.2550    0.2970 h1        1 MOL      0.146970
     48 N5         -6.4780   -0.6750   -1.8270 n         1 MOL     -0.250304
     49 C16        -6.2070   -2.1060   -2.2740 c3        1 MOL     -0.073715
     50 C17        -6.1500   -3.2650   -1.1470 c         1 MOL      0.437821
     51 O10        -5.8250   -4.3710   -1.4470 o         1 MOL     -0.474222
     52 C18        -5.0050   -2.0580   -3.2660 c3        1 MOL     -0.106824
     53 C19        -3.6270   -1.9960   -2.5690 c         1 MOL      0.542180
     54 N6         -2.6280   -2.1110   -3.2920 n         1 MOL     -0.542715
     55 O11        -3.4700   -1.9800   -1.3680 o         1 MOL     -0.479215
     56 H20        -5.6060   -0.1780   -1.7000 hn        1 MOL      0.241046
     57 H21        -7.0840   -2.3060   -2.8980 h1        1 MOL      0.104005
     58 H22        -5.0570   -1.2460   -3.9890 hc        1 MOL      0.047000
     59 H23        -4.9540   -2.9900   -3.8410 hc        1 MOL      0.047000
     60 H24        -2.7410   -2.0960   -4.2940 hn        1 MOL      0.307229
     61 H25        -1.6860   -2.1720   -2.9090 hn        1 MOL      0.307229
     62 N7         -6.4350   -2.8550    0.0840 n         1 MOL     -0.248455
     63 C20        -6.3710   -3.5550    1.3210 c3        1 MOL     -0.026064
     64 C21        -5.0600   -4.1360    1.8190 c         1 MOL      0.463008
     65 O12        -5.1210   -5.0570    2.5630 o         1 MOL     -0.560960
     66 H26        -6.7110   -1.8880    0.1900 hn        1 MOL      0.234661
     67 H27        -7.1480   -4.3110    1.2810 h1        1 MOL      0.059491
     68 H28        -6.7790   -2.8760    2.0700 h1        1 MOL      0.059491
     69 N8         -3.9120   -3.7580    1.2450 n         1 MOL     -0.038463
     70 C22        -2.6420   -4.4310    1.4800 c3        1 MOL     -0.166206
     71 C23        -1.5290   -3.4320    1.5150 c         1 MOL      0.476188
     72 O13        -1.4770   -2.4340    0.8150 o         1 MOL     -0.323549
     73 C24        -2.2970   -5.4690    0.3280 c3        1 MOL      0.419142
     74 C25        -3.3260   -6.5940    0.2050 c3        1 MOL     -0.390881
     75 O14        -2.4170   -4.7350   -0.9240 oh        1 MOL     -0.539081
     76 H29        -3.9410   -3.0390    0.5280 hn        1 MOL     -0.074174
     77 H30        -2.6110   -4.9540    2.4300 h1        1 MOL      0.079199
     78 H31        -1.3010   -5.8790    0.5250 h1        1 MOL     -0.016588
     79 H32        -2.3410   -3.7980   -0.7060 ho        1 MOL      0.300643
     80 H33        -3.0160   -7.3480   -0.5300 hc        1 MOL      0.100658
     81 H34        -3.5160   -7.2020    1.0830 hc        1 MOL      0.100658
     82 H35        -4.2900   -6.2130   -0.1420 hc        1 MOL      0.100658
     83 N9         -0.4940   -3.7480    2.2770 n         1 MOL     -0.646186
     84 C26         0.7250   -2.8860    2.1450 c3        1 MOL      0.004456
     85 C27         1.3860   -3.0900    0.7400 c         1 MOL      0.535408
     86 O15         1.4100   -4.2050    0.2510 o         1 MOL     -0.554105
     87 C28         1.8200   -2.9750    3.3330 c3        1 MOL      0.173465
     88 C29         1.2020   -2.8980    4.7560 c3        1 MOL      0.044764
     89 C30         2.7830   -1.8030    3.2290 c3        1 MOL     -0.236143
     90 C31         2.0860   -2.8970    5.9940 c3        1 MOL     -0.101983
     91 H36        -0.4010   -4.6700    2.6760 hn        1 MOL      0.365708
     92 H37         0.3350   -1.8740    2.1800 h1        1 MOL      0.110477
     93 H38         2.3710   -3.9180    3.2920 hc        1 MOL     -0.020991
     94 H39         0.5350   -3.7610    4.7630 hc        1 MOL     -0.019959
     95 H40         0.5810   -2.0000    4.8260 hc        1 MOL     -0.019959
     96 H41         3.5710   -1.7540    3.9740 hc        1 MOL      0.057879
     97 H42         3.3310   -1.8570    2.2930 hc        1 MOL      0.057879
     98 H43         2.1340   -0.9230    3.3140 hc        1 MOL      0.057879
     99 H44         2.8730   -3.6410    5.8530 hc        1 MOL      0.018811
    100 H45         2.5710   -1.9560    6.2820 hc        1 MOL      0.018811
    101 H46         1.4410   -3.1820    6.8160 hc        1 MOL      0.018811
    102 N10         2.0500   -2.0720    0.1960 n         1 MOL     -0.223256
    103 C32         2.7430   -1.9200   -1.1230 c3        1 MOL      0.190990
    104 C33         4.2160   -1.5780   -0.8820 c         1 MOL      0.298460
    105 O16         4.6410   -1.1500    0.2050 o         1 MOL     -0.313687
    106 C34         2.0530   -0.8440   -1.9490 c3        1 MOL     -0.270300
    107 C35         0.6240   -1.2070   -2.3060 c         1 MOL      0.799384
    108 O17        -0.3380   -0.8540   -1.5840 o         1 MOL     -0.700464
    109 O18         0.4010   -1.8840   -3.3340 o         1 MOL     -0.700464
    110 H47         1.8640   -1.2060    0.6810 hn        1 MOL     -0.121509
    111 H48         2.7310   -2.8210   -1.7340 h1        1 MOL      0.046945
    112 H49         2.6260   -0.6670   -2.8570 hc        1 MOL      0.077622
    113 H50         2.0160    0.0610   -1.3530 hc        1 MOL      0.077622
    114 N11         5.0940   -1.6940   -1.8930 n         1 MOL     -0.485168
    115 C36         6.5330   -1.4800   -1.5930 c3        1 MOL      0.219010
    116 C37         6.9370   -0.1210   -1.0070 c         1 MOL      0.394894
    117 O19         7.7290   -0.0180   -0.0570 o         1 MOL     -0.487150
    118 C38         7.3950   -1.9800   -2.8210 c3        1 MOL     -0.144729
    119 C39         8.8270   -1.5830   -2.6930 ca        1 MOL      0.149583
    120 C40         9.6160   -2.1840   -1.6440 ca        1 MOL     -0.240444
    121 C41         9.4440   -0.6610   -3.6010 ca        1 MOL     -0.240444
    122 C42        10.9950   -1.9320   -1.6430 ca        1 MOL     -0.037607
    123 C43        10.8000   -0.4220   -3.4820 ca        1 MOL     -0.037607
    124 C44        11.6200   -1.0410   -2.5520 ca        1 MOL     -0.189755
    125 H51         4.7730   -2.0730   -2.7720 hn        1 MOL      0.321776
    126 H52         6.9170   -2.0860   -0.7760 h1        1 MOL      0.049935
    127 H53         7.0790   -1.4740   -3.7270 hc        1 MOL      0.049395
    128 H54         7.2180   -3.0510   -2.9180 hc        1 MOL      0.049395
    129 H55         9.2530   -2.8960   -0.9150 ha        1 MOL      0.146883
    130 H56         8.9230   -0.0230   -4.3020 ha        1 MOL      0.146883
    131 H57        11.6200   -2.3940   -0.8880 ha        1 MOL      0.087000
    132 H58        11.3190    0.2860   -4.1130 ha        1 MOL      0.087000
    133 H59        12.6710   -0.8090   -2.4600 ha        1 MOL      0.124311
    134 N12         6.3780    1.0220   -1.5000 n         1 MOL     -0.062296
    135 C45         6.7470    2.3580   -0.9000 c3        1 MOL     -0.064376
    136 C46         6.0560    2.5780    0.4730 c         1 MOL      0.348336
    137 O20         6.3840    3.4620    1.2830 o         1 MOL     -0.510511
    138 C47         6.2990    3.3970   -1.8800 c3        1 MOL     -0.138359
    139 C48         5.1980    2.6420   -2.6860 c3        1 MOL      0.034274
    140 C49         5.6680    1.2060   -2.6960 c3        1 MOL     -0.042455
    141 H60         7.7880    2.2770   -0.6060 h1        1 MOL      0.091404
    142 H61         6.0080    4.3830   -1.5320 hc        1 MOL      0.067426
    143 H62         7.1050    3.4900   -2.6240 hc        1 MOL      0.067426
    144 H63         4.2880    2.7060   -2.0860 hc        1 MOL      0.028147
    145 H64         5.1300    3.0330   -3.6990 hc        1 MOL      0.028147
    146 H65         4.7590    0.6030   -2.6920 h1        1 MOL      0.010363
    147 H66         6.2900    0.9860   -3.5720 h1        1 MOL      0.010363
    148 N13         4.9630    1.8370    0.7590 n         1 MOL     -0.063863
    149 C50         4.2000    1.9350    1.9540 c3        1 MOL     -0.168620
    150 C51         4.8180    1.1040    3.0480 c         1 MOL      0.440235
    151 O21         4.8370    1.4000    4.1990 o         1 MOL     -0.561956
    152 C52         2.8440    1.3450    1.6110 c3        1 MOL      0.084707
    153 C53         2.0100    2.1080    0.5570 c3        1 MOL     -0.041707
    154 C54         0.5320    1.5480    0.3330 c         1 MOL      0.467913
    155 O22         0.2460    0.4910    0.9300 o         1 MOL     -0.605727
    156 O23        -0.3020    2.0050   -0.4570 o         1 MOL     -0.605727
    157 H67         4.6750    1.0780    0.1630 hn        1 MOL      0.188192
    158 H68         4.0090    2.9730    2.2160 h1        1 MOL      0.124640
    159 H69         2.2220    1.3030    2.5020 hc        1 MOL      0.027518
    160 H70         2.8280    0.3140    1.2540 hc        1 MOL      0.027518
    161 H71         2.5520    2.1930   -0.3810 hc        1 MOL      0.011712
    162 H72         1.8230    3.1040    0.9680 hc        1 MOL      0.011712
    163 N14         5.4710    0.0660    2.6100 n         1 MOL      0.073714
    164 C55         6.3390   -0.7270    3.4240 c3        1 MOL     -0.143580
    165 H73         7.0140   -1.2970    2.7870 h1        1 MOL      0.049814
    166 H74         6.9210   -0.0760    4.0770 h1        1 MOL      0.049814
    167 H75         5.7460   -1.4120    4.0290 h1        1 MOL      0.049814
    168 H76         5.4820   -0.1480    1.6190 hn        1 MOL     -0.041879
    169 Ca1        -2.1330    0.0920   -0.1910 Ca        1 MOL      1.632434
    170 O24        -4.4470   -0.6980    1.0630 oh        1 MOL     -0.796253
    171 H77        -4.6580   -0.9500    1.9710 ho        1 MOL      0.387938
    172 H78        -4.8070    0.1880    0.9730 ho        1 MOL      0.387938
    173 O25        -1.8950   -0.0380    2.5140 oh        1 MOL     -0.796253
    174 H79        -2.3170   -0.0100    3.3730 ho        1 MOL      0.387938
    175 H80        -0.9650    0.0220    2.7120 ho        1 MOL      0.387938
@<TRIPOS>BOND
     1    1    2 1   
     2    1    4 1   
     3    1    5 1   
     4    1    6 1   
     5    2    3 2   
     6    2    7 1   
     7    7    8 1   
     8    7   15 1   
     9    8    9 1   
    10    8   11 1   
    11    8   16 1   
    12    9   10 2   
    13    9   19 1   
    14   11   12 1   
    15   11   17 1   
    16   11   18 1   
    17   12   13 1   
    18   12   14 1   
    19   19   20 1   
    20   19   24 1   
    21   20   21 1   
    22   20   23 1   
    23   20   25 1   
    24   21   22 2   
    25   21   29 1   
    26   23   26 1   
    27   23   27 1   
    28   23   28 1   
    29   29   30 1   
    30   29   37 1   
    31   30   31 1   
    32   30   33 1   
    33   30   38 1   
    34   31   32 2   
    35   31   41 1   
    36   33   34 1   
    37   33   39 1   
    38   33   40 1   
    39   34   35 1   
    40   34   36 1   
    41   41   42 1   
    42   41   45 1   
    43   42   43 1   
    44   42   46 1   
    45   42   47 1   
    46   43   44 2   
    47   43   48 1   
    48   48   49 1   
    49   48   56 1   
    50   49   50 1   
    51   49   52 1   
    52   49   57 1   
    53   50   51 2   
    54   50   62 1   
    55   52   53 1   
    56   52   58 1   
    57   52   59 1   
    58   53   54 1   
    59   53   55 2   
    60   54   60 1   
    61   54   61 1   
    62   62   63 1   
    63   62   66 1   
    64   63   64 1   
    65   63   67 1   
    66   63   68 1   
    67   64   65 2   
    68   64   69 1   
    69   69   70 1   
    70   69   76 1   
    71   70   71 1   
    72   70   73 1   
    73   70   77 1   
    74   71   72 2   
    75   71   83 1   
    76   73   74 1   
    77   73   75 1   
    78   73   78 1   
    79   74   80 1   
    80   74   81 1   
    81   74   82 1   
    82   75   79 1   
    83   83   84 1   
    84   83   91 1   
    85   84   85 1   
    86   84   87 1   
    87   84   92 1   
    88   85   86 2   
    89   85  102 1   
    90   87   88 1   
    91   87   89 1   
    92   87   93 1   
    93   88   90 1   
    94   88   94 1   
    95   88   95 1   
    96   89   96 1   
    97   89   97 1   
    98   89   98 1   
    99   90   99 1   
   100   90  100 1   
   101   90  101 1   
   102  102  103 1   
   103  102  110 1   
   104  103  104 1   
   105  103  106 1   
   106  103  111 1   
   107  104  105 2   
   108  104  114 1   
   109  106  107 1   
   110  106  112 1   
   111  106  113 1   
   112  107  108 1   
   113  107  109 1   
   114  114  115 1   
   115  114  125 1   
   116  115  116 1   
   117  115  118 1   
   118  115  126 1   
   119  116  117 2   
   120  116  134 1   
   121  118  119 1   
   122  118  127 1   
   123  118  128 1   
   124  119  120 ar  
   125  119  121 ar  
   126  120  122 ar  
   127  120  129 1   
   128  121  123 ar  
   129  121  130 1   
   130  122  124 ar  
   131  122  131 1   
   132  123  124 ar  
   133  123  132 1   
   134  124  133 1   
   135  134  135 1   
   136  134  140 1   
   137  135  136 1   
   138  135  138 1   
   139  135  141 1   
   140  136  137 2   
   141  136  148 1   
   142  138  139 1   
   143  138  142 1   
   144  138  143 1   
   145  139  140 1   
   146  139  144 1   
   147  139  145 1   
   148  140  146 1   
   149  140  147 1   
   150  148  149 1   
   151  148  157 1   
   152  149  150 1   
   153  149  152 1   
   154  149  158 1   
   155  150  151 2   
   156  150  163 1   
   157  152  153 1   
   158  152  159 1   
   159  152  160 1   
   160  153  154 1   
   161  153  161 1   
   162  153  162 1   
   163  154  155 1   
   164  154  156 1   
   165  163  164 1   
   166  163  168 1   
   167  164  165 1   
   168  164  166 1   
   169  164  167 1   
   170  170  171 1   
   171  170  172 1   
   172  173  174 1   
   173  173  175 1   
@<TRIPOS>SUBSTRUCTURE
     1 MOL         1 TEMP              0 ****  ****    0 ROOT
