@<TRIPOS>MOLECULE
MOL
  172   171     1     0     0
SMALL
resp


@<TRIPOS>ATOM
      1 C1          0.2550    4.4430    5.4810 c3        1 MOL     -0.308738
      2 C2         -0.1530    4.1510    3.9970 c         1 MOL      0.663020
      3 O1          0.6080    4.1340    3.0400 o         1 MOL     -0.560441
      4 H1         -0.2750    5.3270    5.8360 hc        1 MOL      0.071921
      5 H2         -0.0060    3.5880    6.1060 hc        1 MOL      0.071921
      6 H3          1.3290    4.6180    5.5350 hc        1 MOL      0.071921
      7 N1         -1.4120    3.8040    3.8360 n         1 MOL     -0.457277
      8 C3         -2.0230    3.5320    2.5620 c3        1 MOL      0.073636
      9 C4         -2.2600    4.6970    1.5870 c         1 MOL      0.428218
     10 O2         -2.7780    5.7140    1.9890 o         1 MOL     -0.542192
     11 C5         -3.3340    2.8800    2.8610 c3        1 MOL     -0.173599
     12 C6         -4.1940    2.5360    1.5660 c         1 MOL      0.530830
     13 O3         -5.3260    3.0280    1.3960 o         1 MOL     -0.587576
     14 O4         -3.5660    1.8770    0.7060 o         1 MOL     -0.587576
     15 H4         -1.9520    3.7970    4.6850 hn        1 MOL      0.274660
     16 H5         -1.3910    2.8210    2.0400 h1        1 MOL      0.098922
     17 H6         -3.9050    3.4090    3.6200 hc        1 MOL      0.030699
     18 H7         -3.1670    1.9440    3.4020 hc        1 MOL      0.030699
     19 N2         -2.1060    4.4900    0.2640 n         1 MOL     -0.203881
     20 C7         -2.5850    5.3420   -0.8790 c3        1 MOL      0.301757
     21 C8         -3.8750    4.9510   -1.6230 c         1 MOL      0.459070
     22 O5         -4.4180    5.7920   -2.3810 o         1 MOL     -0.606862
     23 C9         -1.3910    5.6310   -1.9330 c3        1 MOL     -0.294486
     24 H8         -1.6550    3.6370   -0.0430 hn        1 MOL      0.149348
     25 H9         -2.8100    6.2940   -0.4090 h1        1 MOL     -0.031366
     26 H10        -1.2630    4.7680   -2.5920 hc        1 MOL      0.074166
     27 H11        -1.6100    6.4540   -2.6080 hc        1 MOL      0.074166
     28 H12        -0.5300    5.8000   -1.2850 hc        1 MOL      0.074166
     29 N3         -4.2810    3.7040   -1.5510 n         1 MOL     -0.272852
     30 C10        -5.0500    3.1610   -2.7020 c3        1 MOL      0.050766
     31 C11        -6.1770    2.2290   -2.2860 c         1 MOL      0.345394
     32 O6         -6.8420    1.6540   -3.1180 o         1 MOL     -0.526400
     33 C12        -4.0150    2.3040   -3.5310 c3        1 MOL     -0.230745
     34 C13        -3.3140    1.1730   -2.7430 c         1 MOL      0.738771
     35 O7         -4.0190    0.4520   -1.9800 o         1 MOL     -0.696521
     36 O8         -2.0790    0.9720   -2.7640 o         1 MOL     -0.696521
     37 H13        -3.8720    3.1250   -0.8310 hn        1 MOL      0.162799
     38 H14        -5.4320    3.9660   -3.3290 h1        1 MOL      0.129557
     39 H15        -3.2550    3.0080   -3.8740 hc        1 MOL      0.058347
     40 H16        -4.5690    1.8400   -4.3460 hc        1 MOL      0.058347
     41 N4         -6.5200    1.9830   -1.0100 n         1 MOL     -0.205214
     42 C14        -7.5250    1.0350   -0.5790 c3        1 MOL     -0.059034
     43 C15        -7.4740   -0.4070   -0.9850 c         1 MOL      0.427853
     44 O9         -8.5130   -1.1190   -0.9910 o         1 MOL     -0.628327
     45 H17        -5.9720    2.4330   -0.2960 hn        1 MOL      0.162087
     46 H18        -8.5090    1.4310   -0.7890 h1        1 MOL      0.069645
     47 H19        -7.4750    1.0960    0.5030 h1        1 MOL      0.069645
     48 N5         -6.3690   -0.9380   -1.4220 n         1 MOL     -0.076152
     49 C16        -6.2260   -2.3460   -1.9310 c3        1 MOL      0.020934
     50 C17        -6.1340   -3.3470   -0.7360 c         1 MOL      0.340680
     51 O10        -5.9330   -4.5660   -0.9720 o         1 MOL     -0.512187
     52 C18        -5.1280   -2.3880   -2.9940 c3        1 MOL     -0.277881
     53 C19        -3.7500   -2.3160   -2.4220 c         1 MOL      0.627756
     54 N6         -2.7680   -2.3530   -3.2510 n         1 MOL     -0.597546
     55 O11        -3.4650   -2.3140   -1.2190 o         1 MOL     -0.452530
     56 H20        -5.5160   -0.4030   -1.5630 hn        1 MOL      0.123690
     57 H21        -7.1520   -2.5620   -2.4690 h1        1 MOL      0.112603
     58 H22        -5.2230   -1.4690   -3.5800 hc        1 MOL      0.093270
     59 H23        -5.2010   -3.2140   -3.6980 hc        1 MOL      0.093270
     60 H24        -3.0430   -2.2700   -4.2200 hn        1 MOL      0.308870
     61 H25        -1.8390   -2.2380   -2.8740 hn        1 MOL      0.308870
     62 N7         -6.1770   -2.9180    0.5430 n         1 MOL     -0.197066
     63 C20        -6.1530   -3.7940    1.7560 c3        1 MOL     -0.191332
     64 C21        -4.8110   -4.3750    2.2330 c         1 MOL      0.430953
     65 O12        -4.6830   -5.2030    3.1150 o         1 MOL     -0.542902
     66 H26        -6.4670   -1.9630    0.6380 hn        1 MOL      0.200949
     67 H27        -6.7790   -4.6550    1.5180 h1        1 MOL      0.110865
     68 H28        -6.7260   -3.2810    2.5190 h1        1 MOL      0.110865
     69 N8         -3.7800   -3.8040    1.6040 n         1 MOL     -0.157327
     70 C22        -2.3720   -4.3220    1.7130 c3        1 MOL     -0.341323
     71 C23        -1.3080   -3.2490    1.6980 c         1 MOL      0.631339
     72 O13        -1.3450   -2.3000    0.9010 o         1 MOL     -0.591857
     73 C24        -2.1350   -5.3420    0.6290 c3        1 MOL      0.761049
     74 C25        -3.0520   -6.5060    0.6570 c3        1 MOL     -0.421086
     75 O14        -2.1610   -4.7660   -0.6800 oh        1 MOL     -0.698282
     76 H29        -3.9320   -3.0460    0.9660 hn        1 MOL      0.322184
     77 H30        -2.2540   -4.8920    2.6340 h1        1 MOL      0.080449
     78 H31        -1.1660   -5.7660    0.8710 h1        1 MOL     -0.086961
     79 H32        -2.6290   -3.9400   -0.7270 ho        1 MOL      0.319157
     80 H33        -3.8720   -6.2900   -0.0280 hc        1 MOL      0.086502
     81 H34        -2.5220   -7.3920    0.3200 hc        1 MOL      0.086502
     82 H35        -3.4230   -6.6760    1.6660 hc        1 MOL      0.086502
     83 N9         -0.1890   -3.5500    2.3950 n         1 MOL     -0.538958
     84 C26         1.0320   -2.6930    2.2580 c3        1 MOL      0.110227
     85 C27         1.5630   -2.9620    0.9180 c         1 MOL      0.518066
     86 O15         1.8870   -4.1400    0.6350 o         1 MOL     -0.572875
     87 C28         2.0460   -2.8810    3.3380 c3        1 MOL      0.024802
     88 C29         1.6180   -2.5190    4.7740 c3        1 MOL     -0.040132
     89 C30         3.3970   -2.2460    3.0910 c3        1 MOL     -0.101662
     90 C31         1.4390   -1.0530    4.9790 c3        1 MOL     -0.191860
     91 H36        -0.2380   -4.3130    3.0460 hn        1 MOL      0.313146
     92 H37         0.7220   -1.6540    2.1500 h1        1 MOL      0.111871
     93 H38         2.2100   -3.9550    3.4020 hc        1 MOL     -0.014335
     94 H39         2.4460   -2.9160    5.3680 hc        1 MOL      0.019650
     95 H40         0.6690   -3.0020    5.0210 hc        1 MOL      0.019650
     96 H41         3.8000   -2.6500    2.1670 hc        1 MOL      0.023093
     97 H42         3.2490   -1.1670    3.0330 hc        1 MOL      0.023093
     98 H43         4.1640   -2.3000    3.8700 hc        1 MOL      0.023093
     99 H44         2.3650   -0.4780    4.9830 hc        1 MOL      0.050747
    100 H45         0.7000   -0.6220    4.3110 hc        1 MOL      0.050747
    101 H46         1.1270   -0.9830    6.0280 hc        1 MOL      0.050747
    102 N10         1.6680   -1.9330    0.0720 n         1 MOL     -0.263874
    103 C32         2.5140   -1.8600   -1.0620 c3        1 MOL     -0.025206
    104 C33         3.9360   -1.4490   -0.6860 c         1 MOL      0.552311
    105 O16         4.2180   -0.7720    0.3160 o         1 MOL     -0.188214
    106 C34         1.9370   -1.1670   -2.3060 c3        1 MOL     -0.266347
    107 C35         0.5130   -1.5740   -2.5820 c         1 MOL      0.762433
    108 O17         0.2800   -2.0850   -3.6700 o         1 MOL     -0.675505
    109 O18        -0.4020   -1.1290   -1.8950 o         1 MOL     -0.675505
    110 H47         1.1710   -1.1080    0.3910 hn        1 MOL      0.161479
    111 H48         2.7140   -2.8940   -1.3470 h1        1 MOL      0.061073
    112 H49         2.6190   -1.2920   -3.1410 hc        1 MOL      0.075931
    113 H50         1.9630   -0.0890   -2.1130 hc        1 MOL      0.075931
    114 N11         4.8880   -1.8540   -1.4700 n         1 MOL     -0.847921
    115 C36         6.2980   -1.4510   -1.2460 c3        1 MOL      0.631806
    116 C37         6.6490    0.0750   -1.0670 c         1 MOL      0.282102
    117 O19         7.4820    0.3400   -0.1560 o         1 MOL     -0.481071
    118 C38         7.1410   -2.0150   -2.4120 c3        1 MOL     -0.385971
    119 C39         8.6320   -1.7840   -2.3380 ca        1 MOL      0.247489
    120 C40         9.4290   -1.2530   -3.3830 ca        1 MOL     -0.282043
    121 C41         9.2700   -2.1180   -1.1070 ca        1 MOL     -0.282043
    122 C42        10.7790   -1.0340   -3.2150 ca        1 MOL     -0.001844
    123 C43        10.6080   -1.8990   -0.9200 ca        1 MOL     -0.001844
    124 C44        11.3810   -1.3900   -2.0240 ca        1 MOL     -0.214028
    125 H51         4.7590   -2.6520   -2.0700 hn        1 MOL      0.390757
    126 H52         6.5620   -1.9910   -0.3360 h1        1 MOL     -0.000243
    127 H53         6.8690   -1.5570   -3.3510 hc        1 MOL      0.088172
    128 H54         6.9180   -3.0820   -2.4620 hc        1 MOL      0.088172
    129 H55         9.0000   -0.9070   -4.3110 ha        1 MOL      0.130970
    130 H56         8.7020   -2.5250   -0.2830 ha        1 MOL      0.130970
    131 H57        11.4590   -0.6550   -3.9770 ha        1 MOL      0.089377
    132 H58        11.1090   -2.1840   -0.0020 ha        1 MOL      0.089377
    133 H59        12.4570   -1.2550   -1.9470 ha        1 MOL      0.109896
    134 N12         6.0340    0.9750   -1.8380 n         1 MOL     -0.088349
    135 C45         6.1540    2.4370   -1.4700 c3        1 MOL     -0.039770
    136 C46         5.7140    2.8380   -0.0560 c         1 MOL      0.340215
    137 O20         6.1030    3.8980    0.4330 o         1 MOL     -0.539190
    138 C47         5.2910    3.1420   -2.4730 c3        1 MOL      0.018990
    139 C48         5.2870    2.2490   -3.6740 c3        1 MOL      0.017553
    140 C49         5.2060    0.8680   -3.0090 c3        1 MOL     -0.133756
    141 H60         7.2120    2.6490   -1.5140 h1        1 MOL      0.080575
    142 H61         4.2740    3.2840   -2.1190 hc        1 MOL      0.025101
    143 H62         5.6790    4.1320   -2.6970 hc        1 MOL      0.025101
    144 H63         4.4540    2.4210   -4.3530 hc        1 MOL      0.022980
    145 H64         6.1760    2.4860   -4.2660 hc        1 MOL      0.022980
    146 H65         4.2000    0.6930   -2.6300 h1        1 MOL      0.074873
    147 H66         5.6210    0.1140   -3.6800 h1        1 MOL      0.074873
    148 N13         4.9760    2.0060    0.6110 n         1 MOL      0.018263
    149 C50         4.2180    2.2360    1.8440 c3        1 MOL     -0.172174
    150 C51         4.9340    1.4150    2.9510 c         1 MOL      0.478538
    151 O21         4.9410    1.7450    4.1580 o         1 MOL     -0.572924
    152 C52         2.7620    1.7620    1.7380 c3        1 MOL      0.123218
    153 C53         1.9620    2.1990    0.4840 c3        1 MOL     -0.123776
    154 C54         0.5240    1.8160    0.4240 c         1 MOL      0.664909
    155 O22        -0.2830    2.2310   -0.4330 o         1 MOL     -0.768898
    156 O23         0.0840    1.0050    1.2880 o         1 MOL     -0.768898
    157 H67         4.8510    1.1130    0.1560 hn        1 MOL      0.001713
    158 H68         4.3570    3.2830    2.1160 h1        1 MOL      0.119585
    159 H69         2.2350    2.2620    2.5470 hc        1 MOL      0.009934
    160 H70         2.7650    0.6710    1.8030 hc        1 MOL      0.009934
    161 H71         2.4770    1.7660   -0.3790 hc        1 MOL      0.058266
    162 H72         2.0530    3.2770    0.4370 hc        1 MOL      0.058266
    163 N14         5.5350    0.2550    2.6200 n         1 MOL     -0.006622
    164 C55         6.5670   -0.4630    3.4290 c3        1 MOL     -0.226717
    165 H73         6.3080   -0.4020    4.4850 h1        1 MOL      0.090853
    166 H74         6.6050   -1.5090    3.1250 h1        1 MOL      0.090853
    167 H75         7.5410   -0.0010    3.2680 h1        1 MOL      0.090853
    168 H76         5.3490   -0.0960    1.6910 hn        1 MOL     -0.098757
    169 Ca1        -1.9710    0.1240   -0.3380 Ca        1 MOL      1.718986
    170 O24        -3.8240   -0.8420    1.5110 oh        1 MOL     -1.129050
    171 H77        -3.4650   -0.6320    2.3670 ho        1 MOL      0.490108
    172 H78        -4.6620   -0.3650    1.4740 ho        1 MOL      0.490108
@<TRIPOS>BOND
     1    1    2 1   
     2    1    4 1   
     3    1    5 1   
     4    1    6 1   
     5    2    3 2   
     6    2    7 1   
     7    7    8 1   
     8    7   15 1   
     9    8    9 1   
    10    8   11 1   
    11    8   16 1   
    12    9   10 2   
    13    9   19 1   
    14   11   12 1   
    15   11   17 1   
    16   11   18 1   
    17   12   13 1   
    18   12   14 1   
    19   19   20 1   
    20   19   24 1   
    21   20   21 1   
    22   20   23 1   
    23   20   25 1   
    24   21   22 2   
    25   21   29 1   
    26   23   26 1   
    27   23   27 1   
    28   23   28 1   
    29   29   30 1   
    30   29   37 1   
    31   30   31 1   
    32   30   33 1   
    33   30   38 1   
    34   31   32 2   
    35   31   41 1   
    36   33   34 1   
    37   33   39 1   
    38   33   40 1   
    39   34   35 1   
    40   34   36 1   
    41   41   42 1   
    42   41   45 1   
    43   42   43 1   
    44   42   46 1   
    45   42   47 1   
    46   43   44 2   
    47   43   48 1   
    48   48   49 1   
    49   48   56 1   
    50   49   50 1   
    51   49   52 1   
    52   49   57 1   
    53   50   51 2   
    54   50   62 1   
    55   52   53 1   
    56   52   58 1   
    57   52   59 1   
    58   53   54 1   
    59   53   55 2   
    60   54   60 1   
    61   54   61 1   
    62   62   63 1   
    63   62   66 1   
    64   63   64 1   
    65   63   67 1   
    66   63   68 1   
    67   64   65 2   
    68   64   69 1   
    69   69   70 1   
    70   69   76 1   
    71   70   71 1   
    72   70   73 1   
    73   70   77 1   
    74   71   72 2   
    75   71   83 1   
    76   73   74 1   
    77   73   75 1   
    78   73   78 1   
    79   74   80 1   
    80   74   81 1   
    81   74   82 1   
    82   75   79 1   
    83   83   84 1   
    84   83   91 1   
    85   84   85 1   
    86   84   87 1   
    87   84   92 1   
    88   85   86 2   
    89   85  102 1   
    90   87   88 1   
    91   87   89 1   
    92   87   93 1   
    93   88   90 1   
    94   88   94 1   
    95   88   95 1   
    96   89   96 1   
    97   89   97 1   
    98   89   98 1   
    99   90   99 1   
   100   90  100 1   
   101   90  101 1   
   102  102  103 1   
   103  102  110 1   
   104  103  104 1   
   105  103  106 1   
   106  103  111 1   
   107  104  105 2   
   108  104  114 1   
   109  106  107 1   
   110  106  112 1   
   111  106  113 1   
   112  107  108 1   
   113  107  109 1   
   114  114  115 1   
   115  114  125 1   
   116  115  116 1   
   117  115  118 1   
   118  115  126 1   
   119  116  117 2   
   120  116  134 1   
   121  118  119 1   
   122  118  127 1   
   123  118  128 1   
   124  119  120 ar  
   125  119  121 ar  
   126  120  122 ar  
   127  120  129 1   
   128  121  123 ar  
   129  121  130 1   
   130  122  124 ar  
   131  122  131 1   
   132  123  124 ar  
   133  123  132 1   
   134  124  133 1   
   135  134  135 1   
   136  134  140 1   
   137  135  136 1   
   138  135  138 1   
   139  135  141 1   
   140  136  137 2   
   141  136  148 1   
   142  138  139 1   
   143  138  142 1   
   144  138  143 1   
   145  139  140 1   
   146  139  144 1   
   147  139  145 1   
   148  140  146 1   
   149  140  147 1   
   150  148  149 1   
   151  148  157 1   
   152  149  150 1   
   153  149  152 1   
   154  149  158 1   
   155  150  151 2   
   156  150  163 1   
   157  152  153 1   
   158  152  159 1   
   159  152  160 1   
   160  153  154 1   
   161  153  161 1   
   162  153  162 1   
   163  154  155 1   
   164  154  156 1   
   165  163  164 1   
   166  163  168 1   
   167  164  165 1   
   168  164  166 1   
   169  164  167 1   
   170  170  171 1   
   171  170  172 1   
@<TRIPOS>SUBSTRUCTURE
     1 MOL         1 TEMP              0 ****  ****    0 ROOT
