@<TRIPOS>MOLECULE
MOL
  189   185     1     0     0
SMALL
resp


@<TRIPOS>ATOM
      1 C1          0.5510   -2.8810    6.2970 c3        1 MOL     -0.395519
      2 C2          0.8640   -2.5670    4.8560 c         1 MOL      0.739176
      3 O1          0.5670   -1.5590    4.2660 o         1 MOL     -0.622235
      4 H1          0.4220   -3.9580    6.4140 hc        1 MOL      0.100565
      5 H2          1.3710   -2.5430    6.9300 hc        1 MOL      0.100565
      6 H3         -0.3680   -2.3720    6.5880 hc        1 MOL      0.100565
      7 N1          1.5440   -3.5270    4.2020 n         1 MOL     -0.525701
      8 C3          2.0540   -3.5030    2.8280 c3        1 MOL      0.055435
      9 C4          1.8390   -4.7890    2.0150 c         1 MOL      0.522338
     10 O2          1.9380   -5.8460    2.5600 o         1 MOL     -0.561123
     11 C5          3.5640   -3.2680    2.9910 c3        1 MOL     -0.242186
     12 C6          4.1880   -2.7890    1.6710 c         1 MOL      0.835858
     13 O3          3.5310   -2.5160    0.6400 o         1 MOL     -0.712391
     14 O4          5.4030   -2.5550    1.7510 o         1 MOL     -0.712391
     15 H4          1.8480   -4.2610    4.8350 hn        1 MOL      0.288168
     16 H5          1.6920   -2.6680    2.2300 h1        1 MOL      0.148813
     17 H6          4.1070   -4.1510    3.3260 hc        1 MOL      0.040486
     18 H7          3.6690   -2.4930    3.7440 hc        1 MOL      0.040486
     19 N2          1.5630   -4.6660    0.6550 n         1 MOL     -0.233216
     20 C7          1.5740   -5.6870   -0.3330 c3        1 MOL     -0.137924
     21 C8          2.3920   -5.2910   -1.5700 c         1 MOL      0.476174
     22 O5          2.2600   -5.9980   -2.5750 o         1 MOL     -0.540282
     23 C9          0.1000   -6.1360   -0.7030 c3        1 MOL      0.185765
     24 C10        -0.7800   -4.9550   -1.2100 c3        1 MOL      0.023928
     25 C11        -0.6020   -6.7630    0.5410 c3        1 MOL     -0.307152
     26 C12        -2.1560   -5.3430   -1.7600 c3        1 MOL     -0.102807
     27 H8          1.5150   -3.7080    0.3610 hn        1 MOL      0.150370
     28 H9          2.1700   -6.4980    0.0820 h1        1 MOL      0.092592
     29 H10         0.1660   -6.7870   -1.5730 hc        1 MOL     -0.026061
     30 H11        -0.2900   -4.3950   -2.0030 hc        1 MOL      0.041102
     31 H12        -0.9490   -4.2020   -0.4420 hc        1 MOL      0.041102
     32 H13        -1.5080   -7.2690    0.2140 hc        1 MOL      0.060536
     33 H14         0.0060   -7.5460    1.0120 hc        1 MOL      0.060536
     34 H15        -0.7600   -5.9870    1.2840 hc        1 MOL      0.060536
     35 H16        -2.1190   -6.1760   -2.4490 hc        1 MOL      0.019300
     36 H17        -2.7210   -5.7520   -0.9230 hc        1 MOL      0.019300
     37 H18        -2.6870   -4.5450   -2.2910 hc        1 MOL      0.019300
     38 N3          3.1790   -4.1510   -1.6160 n         1 MOL     -0.419519
     39 C13         3.9010   -3.8810   -2.8940 c3        1 MOL      0.059851
     40 C14         5.3160   -3.2140   -2.6680 c         1 MOL      0.357735
     41 O6          6.0630   -3.0510   -3.6230 o         1 MOL     -0.561098
     42 C15         2.9690   -3.0710   -3.8570 c3        1 MOL     -0.184301
     43 C16         2.3440   -1.8230   -3.1690 c         1 MOL      0.797698
     44 O7          2.9330   -1.2250   -2.1990 o         1 MOL     -0.725997
     45 O8          1.3120   -1.2860   -3.6590 o         1 MOL     -0.725997
     46 H19         3.2540   -3.5490   -0.8080 hn        1 MOL      0.289116
     47 H20         4.0960   -4.8670   -3.3220 h1        1 MOL      0.074027
     48 H21         2.2130   -3.7810   -4.1990 hc        1 MOL      0.056478
     49 H22         3.4470   -2.7800   -4.7880 hc        1 MOL      0.056478
     50 N4          5.5610   -2.7370   -1.4810 n         1 MOL     -0.036068
     51 C17         6.9090   -2.3030   -1.0760 c3        1 MOL     -0.291434
     52 C18         7.2500   -0.8720   -1.3520 c         1 MOL      0.528642
     53 O9          8.3870   -0.4130   -1.1930 o         1 MOL     -0.634054
     54 H23         4.8320   -2.9410   -0.8240 hn        1 MOL      0.075457
     55 H24         7.6620   -2.9220   -1.5630 h1        1 MOL      0.130343
     56 H25         7.0250   -2.4570    0.0020 h1        1 MOL      0.130343
     57 N5          6.3700   -0.0580   -1.9220 n         1 MOL     -0.211369
     58 C19         6.5970    1.3290   -2.4630 c3        1 MOL      0.032449
     59 C20         6.9860    2.3620   -1.4280 c         1 MOL      0.484357
     60 O10         7.4850    3.4370   -1.8200 o         1 MOL     -0.567822
     61 C21         5.3470    1.7760   -3.2480 c3        1 MOL     -0.344748
     62 C22         4.0110    1.8410   -2.4880 c         1 MOL      0.835806
     63 O11         4.0190    1.3390   -1.3420 o         1 MOL     -0.712180
     64 O12         2.9640    2.1700   -3.0270 o         1 MOL     -0.712180
     65 H26         5.5220   -0.5720   -2.0780 hn        1 MOL      0.208642
     66 H27         7.4120    1.3410   -3.1860 h1        1 MOL      0.077534
     67 H28         5.1950    1.1330   -4.1250 hc        1 MOL      0.085442
     68 H29         5.5160    2.7840   -3.6290 hc        1 MOL      0.085442
     69 N6          6.8100    2.0440   -0.1510 n         1 MOL     -0.238069
     70 C23         6.8810    2.9870    0.9110 c3        1 MOL     -0.244828
     71 C24         5.7520    3.9450    1.1530 c         1 MOL      0.580921
     72 O13         5.9010    4.8370    1.9240 o         1 MOL     -0.611210
     73 H30         6.3350    1.1770    0.0840 hn        1 MOL      0.251062
     74 H31         7.7490    3.6110    0.7270 h1        1 MOL      0.104871
     75 H32         7.0050    2.5090    1.8860 h1        1 MOL      0.104871
     76 N7          4.5580    3.7280    0.5890 n         1 MOL     -0.168064
     77 C25         3.3540    4.4510    0.9790 c3        1 MOL     -0.018676
     78 C26         2.2720    3.5140    1.3900 c         1 MOL      0.538794
     79 O14         2.3470    2.3590    0.9910 o         1 MOL     -0.522334
     80 C27         2.8090    5.3120   -0.2020 c3        1 MOL      0.047909
     81 C28         3.6350    6.5080   -0.6170 c3        1 MOL     -0.205888
     82 C29         2.9220    7.6380   -1.3670 c         1 MOL      0.614071
     83 N8          2.6090    7.4770   -2.6480 n         1 MOL     -0.790924
     84 O15         2.5320    8.6190   -0.6960 o         1 MOL     -0.575365
     85 H33         4.4940    2.9160   -0.0090 hn        1 MOL      0.094341
     86 H34         3.5540    5.0460    1.8600 h1        1 MOL      0.063852
     87 H35         1.8430    5.6690    0.1620 hc        1 MOL      0.026274
     88 H36         2.5760    4.6590   -1.0520 hc        1 MOL      0.026274
     89 H37         4.4610    6.0830   -1.1920 hc        1 MOL      0.061576
     90 H38         4.0030    6.9280    0.3240 hc        1 MOL      0.061576
     91 H39         2.6860    6.5410   -3.0230 hn        1 MOL      0.372363
     92 H40         2.0660    8.2120   -3.0840 hn        1 MOL      0.372363
     93 N9          1.1930    4.0040    2.0250 n         1 MOL     -0.618327
     94 C30         0.0080    3.2010    2.3380 c3        1 MOL      0.061545
     95 C31        -1.1260    3.5510    1.4190 c         1 MOL      0.576688
     96 O16        -1.5080    4.6960    1.2750 o         1 MOL     -0.586299
     97 C32        -0.4070    3.3930    3.8250 c3        1 MOL      0.135163
     98 C33        -0.6530    4.7580    4.4030 c3        1 MOL     -0.223575
     99 C34        -1.3840    2.2820    4.3030 c3        1 MOL     -0.223575
    100 H41         1.1120    4.9720    2.2810 hn        1 MOL      0.348425
    101 H42         0.2700    2.1640    2.1520 h1        1 MOL      0.146591
    102 H43         0.4710    3.0710    4.3810 hc        1 MOL      0.004657
    103 H44        -1.5640    5.2230    4.0290 hc        1 MOL      0.047092
    104 H45        -0.7050    4.9070    5.4750 hc        1 MOL      0.047092
    105 H46         0.1400    5.3910    4.0160 hc        1 MOL      0.047092
    106 H47        -2.4160    2.5220    4.0510 hc        1 MOL      0.047092
    107 H48        -0.9910    1.3590    3.8860 hc        1 MOL      0.047092
    108 H49        -1.2310    2.0670    5.3560 hc        1 MOL      0.047092
    109 N10        -1.5570    2.5440    0.6630 n         1 MOL     -0.196529
    110 C35        -2.6980    2.5130   -0.2360 c3        1 MOL      0.044734
    111 C36        -4.0620    2.2870    0.5230 c         1 MOL      0.176536
    112 O17        -4.0140    1.8160    1.6760 o         1 MOL     -0.254249
    113 C37        -2.3500    1.3440   -1.1770 c3        1 MOL      0.039205
    114 C38        -3.3330    0.9990   -2.3130 c         1 MOL      0.382476
    115 N11        -2.8910    0.0730   -3.1570 n         1 MOL     -0.655628
    116 O18        -4.3440    1.6430   -2.4870 o         1 MOL     -0.441865
    117 H50        -1.1930    1.6510    0.9660 hn        1 MOL     -0.009696
    118 H51        -2.7790    3.4550   -0.7850 h1        1 MOL      0.050865
    119 H52        -2.2220    0.5060   -0.5030 hc        1 MOL      0.047278
    120 H53        -1.4330    1.6410   -1.6870 hc        1 MOL      0.047278
    121 H54        -2.1840   -0.5730   -2.8610 hn        1 MOL      0.361449
    122 H55        -3.4490   -0.0250   -3.9870 hn        1 MOL      0.361449
    123 N12        -5.2380    2.5470   -0.1530 n         1 MOL     -0.181635
    124 C39        -6.5160    2.5240    0.5270 c3        1 MOL      0.068417
    125 C40        -6.9410    1.1310    0.9630 c         1 MOL      0.423052
    126 O19        -7.4680    0.9160    2.0380 o         1 MOL     -0.538091
    127 C41        -7.6120    3.1230   -0.2590 c3        1 MOL     -0.287420
    128 C42        -7.9040    2.5010   -1.6630 ca        1 MOL      0.022395
    129 C43        -8.8020    1.4390   -1.8580 ca        1 MOL     -0.163277
    130 C44        -7.2430    3.0740   -2.8170 ca        1 MOL     -0.163277
    131 C45        -9.0000    0.8140   -3.1110 ca        1 MOL     -0.320238
    132 C46        -7.5360    2.5430   -4.0870 ca        1 MOL     -0.320238
    133 C47        -8.4070    1.3810   -4.2480 ca        1 MOL      0.409071
    134 O20        -8.6620    0.8560   -5.4760 oh        1 MOL     -0.520541
    135 H56        -5.1910    2.8280   -1.1240 hn        1 MOL      0.185621
    136 H57        -6.3450    3.1300    1.4130 h1        1 MOL      0.058742
    137 H58        -7.3420    4.1700   -0.3640 hc        1 MOL      0.104691
    138 H59        -8.5710    3.0660    0.2580 hc        1 MOL      0.104691
    139 H60        -9.3680    1.1450   -0.9840 ha        1 MOL      0.147223
    140 H61        -6.5440    3.8700   -2.6300 ha        1 MOL      0.147223
    141 H62        -9.6040   -0.0840   -3.1560 ha        1 MOL      0.169550
    142 H63        -7.0910    2.8700   -5.0080 ha        1 MOL      0.169550
    143 H64        -9.2320    0.0850   -5.4730 ho        1 MOL      0.383879
    144 N13        -6.5580    0.0880    0.1300 n         1 MOL     -0.320011
    145 C48        -6.7250   -1.3630    0.3310 c3        1 MOL      0.057083
    146 C49        -5.7660   -1.9360    1.3980 c         1 MOL      0.374763
    147 O21        -6.0010   -3.0370    1.9590 o         1 MOL     -0.549145
    148 C50        -6.5820   -2.0750   -1.0530 c3        1 MOL     -0.081009
    149 C51        -5.2570   -1.8980   -1.8040 c3        1 MOL      0.029734
    150 C52        -5.3220   -2.6640   -3.1100 c         1 MOL      0.727888
    151 O22        -6.0920   -3.6410   -3.3540 o         1 MOL     -0.733664
    152 O23        -4.5770   -2.2920   -4.0390 o         1 MOL     -0.733664
    153 H65        -5.9840    0.3090   -0.6660 hn        1 MOL      0.379203
    154 H66        -7.7250   -1.6520    0.6280 h1        1 MOL      0.043119
    155 H67        -7.3160   -1.5570   -1.6710 hc        1 MOL      0.004580
    156 H68        -6.7650   -3.1380   -0.9280 hc        1 MOL      0.004580
    157 H69        -4.4060   -2.1780   -1.1880 hc        1 MOL     -0.053234
    158 H70        -5.1170   -0.8360   -2.0050 hc        1 MOL     -0.053234
    159 N14        -4.6900   -1.2830    1.6740 n         1 MOL     -0.089394
    160 C53        -3.6120   -1.5800    2.6600 c3        1 MOL     -0.066322
    161 C54        -4.0140   -0.9850    3.9780 c         1 MOL      0.392579
    162 O24        -3.9170   -1.6570    5.0140 o         1 MOL     -0.556261
    163 C55        -2.2520   -1.0320    2.1170 c3        1 MOL     -0.005044
    164 C56        -1.6930   -1.9070    1.0150 c3        1 MOL     -0.147904
    165 C57        -0.2730   -1.4120    0.7450 c         1 MOL      0.657971
    166 O25         0.0660   -0.1950    0.9780 o         1 MOL     -0.697272
    167 O26         0.5510   -2.2220    0.2330 o         1 MOL     -0.697272
    168 H71        -4.5260   -0.4160    1.1690 hn        1 MOL      0.065164
    169 H72        -3.5460   -2.6400    2.9050 h1        1 MOL      0.093827
    170 H73        -1.5060   -1.0570    2.9170 hc        1 MOL      0.070086
    171 H74        -2.4130   -0.0080    1.7910 hc        1 MOL      0.070086
    172 H75        -2.3350   -1.8900    0.1330 hc        1 MOL      0.059998
    173 H76        -1.6460   -2.8810    1.5070 hc        1 MOL      0.059998
    174 N15        -4.5510    0.2420    3.9900 n         1 MOL     -0.012934
    175 C58        -4.9440    0.9840    5.1950 c3        1 MOL     -0.298500
    176 H77        -6.0220    0.9060    5.3330 h1        1 MOL      0.100756
    177 H78        -4.4350    0.5640    6.0620 h1        1 MOL      0.100756
    178 H79        -4.6670    2.0320    5.0830 h1        1 MOL      0.100756
    179 H80        -4.6340    0.6750    3.0790 hn        1 MOL      0.050973
    180 Ca1         2.5080   -0.1180    0.1250 Ca        1 MOL      1.751502
    181 O27         5.2380    0.0340    1.3500 oh        1 MOL     -0.910201
    182 H81         5.7410    0.3000    2.1190 ho        1 MOL      0.430781
    183 H82         5.2290   -0.9230    1.3830 ho        1 MOL      0.430781
    184 O28         2.7030   -0.2990    2.8260 oh        1 MOL     -0.910201
    185 H83         1.9550   -0.7520    3.2180 ho        1 MOL      0.430781
    186 H84         3.2450   -0.0490    3.5810 ho        1 MOL      0.430781
    187 O29         1.0320    0.7940   -1.9980 oh        1 MOL     -0.910201
    188 H85         1.6000    1.4270   -2.4430 ho        1 MOL      0.430781
    189 H86         0.9210    0.0870   -2.6320 ho        1 MOL      0.430781
@<TRIPOS>BOND
     1    1    2 1   
     2    1    4 1   
     3    1    5 1   
     4    1    6 1   
     5    2    3 2   
     6    2    7 1   
     7    7    8 1   
     8    7   15 1   
     9    8    9 1   
    10    8   11 1   
    11    8   16 1   
    12    9   10 2   
    13    9   19 1   
    14   11   12 1   
    15   11   17 1   
    16   11   18 1   
    17   12   13 1   
    18   12   14 1   
    19   19   20 1   
    20   19   27 1   
    21   20   21 1   
    22   20   23 1   
    23   20   28 1   
    24   21   22 2   
    25   21   38 1   
    26   23   24 1   
    27   23   25 1   
    28   23   29 1   
    29   24   26 1   
    30   24   30 1   
    31   24   31 1   
    32   25   32 1   
    33   25   33 1   
    34   25   34 1   
    35   26   35 1   
    36   26   36 1   
    37   26   37 1   
    38   38   39 1   
    39   38   46 1   
    40   39   40 1   
    41   39   42 1   
    42   39   47 1   
    43   40   41 2   
    44   40   50 1   
    45   42   43 1   
    46   42   48 1   
    47   42   49 1   
    48   43   44 1   
    49   43   45 1   
    50   50   51 1   
    51   50   54 1   
    52   51   52 1   
    53   51   55 1   
    54   51   56 1   
    55   52   53 2   
    56   52   57 1   
    57   57   58 1   
    58   57   65 1   
    59   58   59 1   
    60   58   61 1   
    61   58   66 1   
    62   59   60 2   
    63   59   69 1   
    64   61   62 1   
    65   61   67 1   
    66   61   68 1   
    67   62   63 1   
    68   62   64 1   
    69   69   70 1   
    70   69   73 1   
    71   70   71 1   
    72   70   74 1   
    73   70   75 1   
    74   71   72 2   
    75   71   76 1   
    76   76   77 1   
    77   76   85 1   
    78   77   78 1   
    79   77   80 1   
    80   77   86 1   
    81   78   79 2   
    82   78   93 1   
    83   80   81 1   
    84   80   87 1   
    85   80   88 1   
    86   81   82 1   
    87   81   89 1   
    88   81   90 1   
    89   82   83 1   
    90   82   84 2   
    91   83   91 1   
    92   83   92 1   
    93   93   94 1   
    94   93  100 1   
    95   94   95 1   
    96   94   97 1   
    97   94  101 1   
    98   95   96 2   
    99   95  109 1   
   100   97   98 1   
   101   97   99 1   
   102   97  102 1   
   103   98  103 1   
   104   98  104 1   
   105   98  105 1   
   106   99  106 1   
   107   99  107 1   
   108   99  108 1   
   109  109  110 1   
   110  109  117 1   
   111  110  111 1   
   112  110  113 1   
   113  110  118 1   
   114  111  112 2   
   115  111  123 1   
   116  113  114 1   
   117  113  119 1   
   118  113  120 1   
   119  114  115 1   
   120  114  116 2   
   121  115  121 1   
   122  115  122 1   
   123  123  124 1   
   124  123  135 1   
   125  124  125 1   
   126  124  127 1   
   127  124  136 1   
   128  125  126 2   
   129  125  144 1   
   130  127  128 1   
   131  127  137 1   
   132  127  138 1   
   133  128  129 ar  
   134  128  130 ar  
   135  129  131 ar  
   136  129  139 1   
   137  130  132 ar  
   138  130  140 1   
   139  131  133 ar  
   140  131  141 1   
   141  132  133 ar  
   142  132  142 1   
   143  133  134 1   
   144  134  143 1   
   145  144  145 1   
   146  144  153 1   
   147  145  146 1   
   148  145  148 1   
   149  145  154 1   
   150  146  147 2   
   151  146  159 1   
   152  148  149 1   
   153  148  155 1   
   154  148  156 1   
   155  149  150 1   
   156  149  157 1   
   157  149  158 1   
   158  150  151 1   
   159  150  152 1   
   160  159  160 1   
   161  159  168 1   
   162  160  161 1   
   163  160  163 1   
   164  160  169 1   
   165  161  162 2   
   166  161  174 1   
   167  163  164 1   
   168  163  170 1   
   169  163  171 1   
   170  164  165 1   
   171  164  172 1   
   172  164  173 1   
   173  165  166 1   
   174  165  167 1   
   175  174  175 1   
   176  174  179 1   
   177  175  176 1   
   178  175  177 1   
   179  175  178 1   
   180  181  182 1   
   181  181  183 1   
   182  184  185 1   
   183  184  186 1   
   184  187  188 1   
   185  187  189 1   
@<TRIPOS>SUBSTRUCTURE
     1 MOL         1 TEMP              0 ****  ****    0 ROOT
