@<TRIPOS>MOLECULE
MOL
  179   176     1     0     0
SMALL
resp


@<TRIPOS>ATOM
      1 C1          2.1930    1.5710    6.2470 c3        1 MOL     -0.224211
      2 C2          1.8260    1.4330    4.7490 c         1 MOL      0.695895
      3 O1          2.7070    1.2830    3.8870 o         1 MOL     -0.577563
      4 H1          1.2820    1.5570    6.8460 hc        1 MOL      0.060196
      5 H2          2.8350    0.7410    6.5430 hc        1 MOL      0.060196
      6 H3          2.7180    2.5130    6.4070 hc        1 MOL      0.060196
      7 N1          0.5060    1.6080    4.4430 n         1 MOL     -0.606652
      8 C3         -0.0070    1.7120    3.0750 c3        1 MOL     -0.177552
      9 C4          0.3480    3.0710    2.6110 c         1 MOL      0.721554
     10 O2         -0.1930    4.0420    3.0750 o         1 MOL     -0.556708
     11 C5         -1.5560    1.4740    3.1520 c3        1 MOL     -0.358509
     12 C6         -2.3810    1.5650    1.8780 c         1 MOL      0.774659
     13 O3         -1.8600    1.7880    0.7710 o         1 MOL     -0.691448
     14 O4         -3.6430    1.4950    1.9350 o         1 MOL     -0.691448
     15 H4         -0.1770    1.7710    5.1750 hn        1 MOL      0.364674
     16 H5          0.5160    1.0130    2.4280 h1        1 MOL      0.228608
     17 H6         -1.9300    2.2110    3.8500 hc        1 MOL      0.118705
     18 H7         -1.7430    0.5100    3.6250 hc        1 MOL      0.118705
     19 N2          1.0690    3.1590    1.4910 n         1 MOL     -0.286694
     20 C7          1.6430    4.3920    0.9820 c3        1 MOL     -0.366698
     21 C8          0.5200    5.3150    0.5390 c         1 MOL      0.542453
     22 O5          0.5040    6.4710    0.7870 o         1 MOL     -0.576142
     23 C9          2.6520    4.0820   -0.1550 c3        1 MOL      0.511210
     24 C10         3.6100    5.1940   -0.3880 c3        1 MOL     -0.211550
     25 C11         4.6120    4.7500   -1.4560 c3        1 MOL      0.021675
     26 C12         5.2960    6.0360   -2.0270 c3        1 MOL      0.139297
     27 N3          6.5400    5.6800   -2.7710 n4        1 MOL     -0.408467
     28 H8          1.2770    2.2270    1.1340 hn        1 MOL      0.190554
     29 H9          2.1290    4.9740    1.7650 h1        1 MOL      0.140829
     30 H10         2.1690    3.9270   -1.1200 hc        1 MOL     -0.070119
     31 H11         3.1590    3.1390    0.0720 hc        1 MOL     -0.070119
     32 H12         4.1480    5.4290    0.5330 hc        1 MOL      0.047485
     33 H13         2.9520    5.9980   -0.7210 hc        1 MOL      0.047485
     34 H14         4.1100    4.2470   -2.2840 hc        1 MOL      0.018547
     35 H15         5.3610    4.0590   -1.0650 hc        1 MOL      0.018547
     36 H16         5.6190    6.7380   -1.2530 hx        1 MOL      0.055946
     37 H17         4.6150    6.6130   -2.6360 hx        1 MOL      0.055946
     38 H18         7.0950    6.4820   -2.9950 hn        1 MOL      0.333694
     39 H19         7.0960    4.9940   -2.2780 hn        1 MOL      0.333694
     40 H20         6.2340    5.3290   -3.6600 hn        1 MOL      0.333694
     41 N4         -0.3290    4.8450   -0.3450 n         1 MOL     -0.150516
     42 C13        -1.3630    5.5260   -1.1930 c3        1 MOL     -0.008356
     43 C14        -2.8160    5.2840   -0.7310 c         1 MOL      0.434613
     44 O6         -3.6920    5.8480   -1.3180 o         1 MOL     -0.503912
     45 C15        -1.2690    5.0260   -2.6300 c3        1 MOL     -0.252471
     46 C16        -1.1660    3.5270   -2.7110 c         1 MOL      0.758015
     47 O7         -2.1750    2.7870   -2.8600 o         1 MOL     -0.734742
     48 O8         -0.1520    2.9320   -2.3680 o         1 MOL     -0.734742
     49 H21        -0.0960    3.8940   -0.6060 hn        1 MOL      0.070228
     50 H22        -1.1300    6.5820   -1.2540 h1        1 MOL      0.115899
     51 H23        -0.3140    5.4420   -2.9640 hc        1 MOL      0.067543
     52 H24        -2.0570    5.3910   -3.2980 hc        1 MOL      0.067543
     53 N5         -3.0700    4.4910    0.3150 n         1 MOL     -0.303178
     54 C17        -4.3660    4.5140    0.9860 c3        1 MOL     -0.037616
     55 C18        -5.4750    3.7210    0.3280 c         1 MOL      0.479411
     56 O9         -6.6010    4.1670    0.4330 o         1 MOL     -0.572792
     57 H25        -2.3190    3.9440    0.7020 hn        1 MOL      0.260386
     58 H26        -4.7140    5.5480    1.0480 h1        1 MOL      0.073279
     59 H27        -4.2490    4.2100    2.0340 h1        1 MOL      0.073279
     60 N6         -5.1780    2.6050   -0.3250 n         1 MOL     -0.079772
     61 C19        -6.1860    1.8480   -1.0290 c3        1 MOL     -0.110000
     62 C20        -6.7220    0.6270   -0.2600 c         1 MOL      0.298047
     63 O10        -7.3960   -0.2170   -0.7930 o         1 MOL     -0.434726
     64 C21        -5.6830    1.4820   -2.3670 c3        1 MOL     -0.069154
     65 C22        -4.6540    0.4160   -2.3140 c         1 MOL      0.480050
     66 N7         -4.6910   -0.5750   -3.1090 n         1 MOL     -0.637752
     67 O11        -3.7190    0.4520   -1.4680 o         1 MOL     -0.541024
     68 H28        -4.2330    2.2510   -0.3490 hn        1 MOL      0.090485
     69 H29        -7.0110    2.5560   -1.1380 h1        1 MOL      0.132937
     70 H30        -5.1580    2.2900   -2.8800 hc        1 MOL      0.069483
     71 H31        -6.5220    1.2320   -3.0150 hc        1 MOL      0.069483
     72 H32        -5.3840   -0.6880   -3.8380 hn        1 MOL      0.340821
     73 H33        -3.9020   -1.1950   -3.0830 hn        1 MOL      0.340821
     74 N8         -6.1510    0.3710    0.9270 n         1 MOL     -0.115434
     75 C23        -6.5210   -0.8150    1.7090 c3        1 MOL     -0.406819
     76 C24        -5.6750   -2.0210    1.5540 c         1 MOL      0.587417
     77 O12        -5.9610   -3.0610    2.1800 o         1 MOL     -0.556215
     78 H34        -5.4330    0.9450    1.3490 hn        1 MOL      0.229671
     79 H35        -7.5420   -1.1440    1.4890 h1        1 MOL      0.169612
     80 H36        -6.4820   -0.4790    2.7410 h1        1 MOL      0.169612
     81 N9         -4.6280   -1.9280    0.7320 n         1 MOL     -0.141278
     82 C25        -3.6790   -3.0370    0.5390 c3        1 MOL      0.007258
     83 C26        -2.1970   -2.5560    0.5110 c         1 MOL      0.479744
     84 O13        -1.8960   -1.5610   -0.0980 o         1 MOL     -0.469474
     85 C27        -4.0190   -3.7530   -0.7650 c3        1 MOL      0.353182
     86 C28        -5.4440   -4.2580   -0.8430 ca        1 MOL     -0.187153
     87 C29        -6.4680   -3.4720   -1.4020 ca        1 MOL     -0.120360
     88 C30        -5.7360   -5.5320   -0.3090 ca        1 MOL     -0.120360
     89 C31        -7.8040   -3.9050   -1.3780 ca        1 MOL     -0.175828
     90 C32        -7.0150   -6.0220   -0.4850 ca        1 MOL     -0.175828
     91 C33        -8.1320   -5.2560   -1.0130 ca        1 MOL      0.224647
     92 O14        -9.3640   -5.7020   -0.9020 oh        1 MOL     -0.415169
     93 H37        -4.2530   -1.0340    0.4660 hn        1 MOL      0.099717
     94 H38        -3.8760   -3.7190    1.3690 h1        1 MOL      0.029042
     95 H39        -3.3680   -4.6170   -0.8510 hc        1 MOL     -0.075042
     96 H40        -3.8140   -3.1670   -1.6570 hc        1 MOL     -0.075042
     97 H41        -6.2540   -2.4950   -1.7930 ha        1 MOL      0.109843
     98 H42        -4.9510   -6.2070   -0.0040 ha        1 MOL      0.109843
     99 H43        -8.5750   -3.2290   -1.7010 ha        1 MOL      0.108336
    100 H44        -7.2810   -7.0070   -0.1560 ha        1 MOL      0.108336
    101 H45        -9.3840   -6.6120   -0.5950 ho        1 MOL      0.348422
    102 N10        -1.3310   -3.2020    1.3130 n         1 MOL     -0.523056
    103 C34         0.0980   -2.8900    1.4200 c3        1 MOL     -0.072637
    104 C35         0.9410   -3.8340    0.5680 c         1 MOL      0.580427
    105 O15         0.8680   -5.0560    0.6440 o         1 MOL     -0.560679
    106 C36         0.5160   -3.0010    2.9360 c3        1 MOL      0.246728
    107 C37        -0.3320   -2.1290    3.7570 c3        1 MOL      0.129844
    108 C38         1.9700   -2.5930    3.2200 c3        1 MOL     -0.477098
    109 C39        -0.2600   -2.3940    5.2900 c3        1 MOL     -0.229704
    110 H46        -1.7410   -3.9510    1.8500 hn        1 MOL      0.310361
    111 H47         0.3030   -1.8600    1.1470 h1        1 MOL      0.066622
    112 H48         0.4090   -4.0470    3.2330 hc        1 MOL     -0.003756
    113 H49        -1.4060   -2.1570    3.5420 hc        1 MOL     -0.023219
    114 H50        -0.1070   -1.0720    3.6540 hc        1 MOL     -0.023219
    115 H51         2.5690   -3.3010    2.6310 hc        1 MOL      0.108527
    116 H52         2.1680   -1.5580    2.9420 hc        1 MOL      0.108527
    117 H53         2.3000   -2.8380    4.2230 hc        1 MOL      0.108527
    118 H54         0.7340   -2.4360    5.7270 hc        1 MOL      0.048485
    119 H55        -0.7700   -1.6260    5.8650 hc        1 MOL      0.048485
    120 H56        -0.6900   -3.3800    5.4700 hc        1 MOL      0.048485
    121 N11         1.7710   -3.2750   -0.2910 n         1 MOL     -0.330560
    122 C40         2.7590   -3.9760   -1.1270 c3        1 MOL      0.015373
    123 C41         4.1660   -4.0010   -0.5230 c         1 MOL      0.436298
    124 O16         4.4930   -3.3610    0.5150 o         1 MOL     -0.472880
    125 C42         2.8180   -3.3420   -2.5370 c3        1 MOL      0.230748
    126 O17         1.5830   -2.9110   -2.9880 oh        1 MOL     -0.565106
    127 H57         1.9970   -2.2910   -0.2750 hn        1 MOL      0.420373
    128 H58         2.4980   -5.0250   -1.3050 h1        1 MOL      0.075832
    129 H59         3.1780   -4.0610   -3.2750 h1        1 MOL      0.005199
    130 H60         3.5160   -2.5160   -2.6570 h1        1 MOL      0.005199
    131 H61         1.2820   -2.2090   -2.4050 ho        1 MOL      0.297524
    132 N12         5.0930   -4.7140   -1.1530 n         1 MOL     -0.471865
    133 C43         6.5420   -4.8120   -0.7750 c3        1 MOL      0.291777
    134 C44         7.3630   -3.5750   -1.0290 c         1 MOL      0.359262
    135 O18         8.1990   -3.2220   -0.1970 o         1 MOL     -0.484150
    136 C45         7.2040   -5.9480   -1.4910 c3        1 MOL     -0.485966
    137 H62         4.9430   -5.1800   -2.0390 hn        1 MOL      0.264680
    138 H63         6.5960   -4.9990    0.2960 h1        1 MOL      0.083706
    139 H64         7.0230   -5.8570   -2.5620 hc        1 MOL      0.139892
    140 H65         8.2750   -5.9410   -1.2680 hc        1 MOL      0.139892
    141 H66         6.7160   -6.8700   -1.1750 hc        1 MOL      0.139892
    142 N13         7.0550   -2.8080   -2.0980 n         1 MOL     -0.250652
    143 C46         7.4810   -1.4640   -2.3450 c3        1 MOL      0.061954
    144 C47         7.0100   -0.4350   -1.2810 c         1 MOL      0.297605
    145 O19         7.5830    0.6990   -1.1810 o         1 MOL     -0.530036
    146 C48         6.9160   -0.9770   -3.7210 c3        1 MOL     -0.284034
    147 H67         6.5500   -3.2320   -2.8650 hn        1 MOL      0.182344
    148 H68         8.5620   -1.4000   -2.3390 h1        1 MOL      0.105660
    149 H69         5.8410   -1.1510   -3.8320 hc        1 MOL      0.088254
    150 H70         7.0060    0.0900   -3.9130 hc        1 MOL      0.088254
    151 H71         7.5500   -1.4000   -4.4950 hc        1 MOL      0.088254
    152 N14         5.9420   -0.7280   -0.5620 n         1 MOL      0.068015
    153 C49         5.3570    0.1660    0.4410 c3        1 MOL     -0.201271
    154 C50         5.9130   -0.1420    1.8520 c         1 MOL      0.572016
    155 O20         6.2680    0.7840    2.5410 o         1 MOL     -0.519088
    156 C51         3.7790    0.1030    0.5070 c3        1 MOL      0.429915
    157 C52         3.2760    0.4890   -0.8610 c3        1 MOL     -0.042684
    158 C53         1.7780    0.3260   -0.9140 c         1 MOL      0.784808
    159 O21         1.1830   -0.5540   -1.6570 o         1 MOL     -0.864697
    160 O22         1.0310    0.9130   -0.0920 o         1 MOL     -0.864697
    161 H72         5.3310   -1.4410   -0.9370 hn        1 MOL      0.007506
    162 H73         5.5450    1.2300    0.2660 h1        1 MOL      0.078818
    163 H74         3.4570    0.8020    1.2890 hc        1 MOL     -0.104312
    164 H75         3.4700   -0.8900    0.8300 hc        1 MOL     -0.104312
    165 H76         3.6280   -0.2810   -1.5570 hc        1 MOL     -0.045664
    166 H77         3.5640    1.4680   -1.2380 hc        1 MOL     -0.045664
    167 N15         6.2740   -1.4780    2.1310 n         1 MOL     -0.261086
    168 C54         7.0360   -1.7270    3.3320 c3        1 MOL     -0.327342
    169 H78         6.3580   -1.7980    4.1830 h1        1 MOL      0.129178
    170 H79         7.5860   -2.6610    3.2270 h1        1 MOL      0.129178
    171 H80         7.7370   -0.9080    3.4950 h1        1 MOL      0.129178
    172 H81         6.0830   -2.1540    1.4040 hn        1 MOL      0.194928
    173 Ca1        -1.1450    0.6960   -1.5300 Ca        1 MOL      1.747737
    174 O23        -1.6080   -1.4630   -3.0150 oh        1 MOL     -0.794993
    175 H82        -1.3570   -2.3810   -3.0480 ho        1 MOL      0.398085
    176 H83        -1.5270   -1.1560   -3.9200 ho        1 MOL      0.398085
    177 O24         0.1860    0.3750   -4.2040 oh        1 MOL     -0.794993
    178 H84         0.8870   -0.1950   -3.8940 ho        1 MOL      0.398085
    179 H85         0.6320    1.0540   -4.7140 ho        1 MOL      0.398085
@<TRIPOS>BOND
     1    1    2 1   
     2    1    4 1   
     3    1    5 1   
     4    1    6 1   
     5    2    3 2   
     6    2    7 1   
     7    7    8 1   
     8    7   15 1   
     9    8    9 1   
    10    8   11 1   
    11    8   16 1   
    12    9   10 2   
    13    9   19 1   
    14   11   12 1   
    15   11   17 1   
    16   11   18 1   
    17   12   13 1   
    18   12   14 1   
    19   19   20 1   
    20   19   28 1   
    21   20   21 1   
    22   20   23 1   
    23   20   29 1   
    24   21   22 2   
    25   21   41 1   
    26   23   24 1   
    27   23   30 1   
    28   23   31 1   
    29   24   25 1   
    30   24   32 1   
    31   24   33 1   
    32   25   26 1   
    33   25   34 1   
    34   25   35 1   
    35   26   27 1   
    36   26   36 1   
    37   26   37 1   
    38   27   38 1   
    39   27   39 1   
    40   27   40 1   
    41   41   42 1   
    42   41   49 1   
    43   42   43 1   
    44   42   45 1   
    45   42   50 1   
    46   43   44 2   
    47   43   53 1   
    48   45   46 1   
    49   45   51 1   
    50   45   52 1   
    51   46   47 1   
    52   46   48 1   
    53   53   54 1   
    54   53   57 1   
    55   54   55 1   
    56   54   58 1   
    57   54   59 1   
    58   55   56 2   
    59   55   60 1   
    60   60   61 1   
    61   60   68 1   
    62   61   62 1   
    63   61   64 1   
    64   61   69 1   
    65   62   63 2   
    66   62   74 1   
    67   64   65 1   
    68   64   70 1   
    69   64   71 1   
    70   65   66 1   
    71   65   67 2   
    72   66   72 1   
    73   66   73 1   
    74   74   75 1   
    75   74   78 1   
    76   75   76 1   
    77   75   79 1   
    78   75   80 1   
    79   76   77 2   
    80   76   81 1   
    81   81   82 1   
    82   81   93 1   
    83   82   83 1   
    84   82   85 1   
    85   82   94 1   
    86   83   84 2   
    87   83  102 1   
    88   85   86 1   
    89   85   95 1   
    90   85   96 1   
    91   86   87 ar  
    92   86   88 ar  
    93   87   89 ar  
    94   87   97 1   
    95   88   90 ar  
    96   88   98 1   
    97   89   91 ar  
    98   89   99 1   
    99   90   91 ar  
   100   90  100 1   
   101   91   92 1   
   102   92  101 1   
   103  102  103 1   
   104  102  110 1   
   105  103  104 1   
   106  103  106 1   
   107  103  111 1   
   108  104  105 2   
   109  104  121 1   
   110  106  107 1   
   111  106  108 1   
   112  106  112 1   
   113  107  109 1   
   114  107  113 1   
   115  107  114 1   
   116  108  115 1   
   117  108  116 1   
   118  108  117 1   
   119  109  118 1   
   120  109  119 1   
   121  109  120 1   
   122  121  122 1   
   123  121  127 1   
   124  122  123 1   
   125  122  125 1   
   126  122  128 1   
   127  123  124 2   
   128  123  132 1   
   129  125  126 1   
   130  125  129 1   
   131  125  130 1   
   132  126  131 1   
   133  132  133 1   
   134  132  137 1   
   135  133  134 1   
   136  133  136 1   
   137  133  138 1   
   138  134  135 2   
   139  134  142 1   
   140  136  139 1   
   141  136  140 1   
   142  136  141 1   
   143  142  143 1   
   144  142  147 1   
   145  143  144 1   
   146  143  146 1   
   147  143  148 1   
   148  144  145 2   
   149  144  152 1   
   150  146  149 1   
   151  146  150 1   
   152  146  151 1   
   153  152  153 1   
   154  152  161 1   
   155  153  154 1   
   156  153  156 1   
   157  153  162 1   
   158  154  155 2   
   159  154  167 1   
   160  156  157 1   
   161  156  163 1   
   162  156  164 1   
   163  157  158 1   
   164  157  165 1   
   165  157  166 1   
   166  158  159 1   
   167  158  160 1   
   168  167  168 1   
   169  167  172 1   
   170  168  169 1   
   171  168  170 1   
   172  168  171 1   
   173  174  175 1   
   174  174  176 1   
   175  177  178 1   
   176  177  179 1   
@<TRIPOS>SUBSTRUCTURE
     1 MOL         1 TEMP              0 ****  ****    0 ROOT
