@<TRIPOS>MOLECULE
MOL
  189   185     1     0     0
SMALL
resp


@<TRIPOS>ATOM
      1 C1         -0.1800    3.0200   -5.4280 c3        1 MOL     -0.297655
      2 C2          0.3550    2.9530   -3.9710 c         1 MOL      0.696326
      3 O1         -0.3630    3.3320   -3.0730 o         1 MOL     -0.568413
      4 H1         -1.2540    3.2030   -5.4110 hc        1 MOL      0.074717
      5 H2          0.3180    3.8300   -5.9610 hc        1 MOL      0.074717
      6 H3          0.0190    2.0750   -5.9320 hc        1 MOL      0.074717
      7 N1          1.5590    2.2820   -3.8180 n         1 MOL     -0.618498
      8 C3          2.0790    1.9080   -2.5150 c3        1 MOL      0.094093
      9 C4          2.7150    3.0710   -1.8040 c         1 MOL      0.549122
     10 O2          3.6050    3.7810   -2.2890 o         1 MOL     -0.581381
     11 C5          3.0700    0.7430   -2.7250 c3        1 MOL     -0.169829
     12 C6          3.7730    0.1970   -1.4970 c         1 MOL      0.788576
     13 O3          3.2110    0.3770   -0.4030 o         1 MOL     -0.701177
     14 O4          4.8820   -0.4130   -1.6660 o         1 MOL     -0.701177
     15 H4          2.0820    1.9270   -4.6000 hn        1 MOL      0.334460
     16 H5          1.2410    1.5750   -1.9000 h1        1 MOL      0.031334
     17 H6          3.8630    1.0090   -3.4180 hc        1 MOL      0.039262
     18 H7          2.5980   -0.0940   -3.2440 hc        1 MOL      0.039262
     19 N2          2.1450    3.3850   -0.6370 n         1 MOL     -0.376346
     20 C7          2.1840    4.6670    0.0330 c3        1 MOL      0.065816
     21 C8          2.9780    4.6420    1.3930 c         1 MOL      0.487584
     22 O5          3.2470    5.6770    1.9190 o         1 MOL     -0.566135
     23 C9          0.7530    5.3230    0.1240 c3        1 MOL      0.025482
     24 C10         0.6580    6.9310    0.1930 c3        1 MOL     -0.108092
     25 C11         0.6780    7.4640   -1.2310 c3        1 MOL     -0.006562
     26 C12         0.6490    9.0280   -1.2650 c3        1 MOL     -0.023101
     27 N3          0.4650    9.5940   -2.6060 n4        1 MOL     -0.265982
     28 H8          1.4870    2.7190   -0.2680 hn        1 MOL      0.214957
     29 H9          2.7660    5.3810   -0.5560 h1        1 MOL      0.062113
     30 H10         0.3370    5.0380    1.0910 hc        1 MOL      0.044111
     31 H11         0.1360    4.9920   -0.7200 hc        1 MOL      0.044111
     32 H12         1.4990    7.3510    0.7340 hc        1 MOL      0.028885
     33 H13        -0.2760    7.2190    0.6830 hc        1 MOL      0.028885
     34 H14        -0.1040    6.9670   -1.8190 hc        1 MOL      0.047176
     35 H15         1.6150    7.1260   -1.6540 hc        1 MOL      0.047176
     36 H16         1.6080    9.3560   -0.8540 hx        1 MOL      0.094051
     37 H17        -0.1350    9.4280   -0.6340 hx        1 MOL      0.094051
     38 H18        -0.2350   10.3220   -2.6850 hn        1 MOL      0.303635
     39 H19         1.3270   10.0730   -2.8140 hn        1 MOL      0.303635
     40 H20         0.3990    8.8790   -3.3050 hn        1 MOL      0.303635
     41 N4          3.3990    3.5140    1.9040 n         1 MOL     -0.353649
     42 C13         4.5480    3.3070    2.7500 c3        1 MOL      0.309997
     43 C14         5.7770    2.7350    2.0580 c         1 MOL      0.317859
     44 O6          6.9480    2.9430    2.4660 o         1 MOL     -0.504527
     45 C15         4.0750    2.4920    3.9740 c3        1 MOL     -0.621592
     46 C16         3.4080    1.1660    3.6620 c         1 MOL      0.896252
     47 O7          2.9480    0.5360    4.6650 o         1 MOL     -0.719782
     48 O8          3.3830    0.6840    2.5490 o         1 MOL     -0.719782
     49 H21         2.9770    2.6770    1.5130 hn        1 MOL      0.249087
     50 H22         4.9080    4.2610    3.1260 h1        1 MOL      0.046687
     51 H23         3.4310    3.1970    4.4960 hc        1 MOL      0.160388
     52 H24         4.9310    2.1970    4.5820 hc        1 MOL      0.160388
     53 N5          5.6380    1.9490    0.9110 n         1 MOL     -0.242087
     54 C17         6.8510    1.3950    0.2150 c3        1 MOL      0.001514
     55 C18         7.2860    0.0830    0.9170 c         1 MOL      0.440310
     56 O9          8.4690   -0.2510    1.1420 o         1 MOL     -0.573314
     57 H25         4.7230    1.5890    0.6590 hn        1 MOL      0.097288
     58 H26         7.6920    2.0830    0.1090 h1        1 MOL      0.071958
     59 H27         6.6230    1.1390   -0.8160 h1        1 MOL      0.071958
     60 N6          6.3480   -0.7340    1.4430 n         1 MOL     -0.095589
     61 C19         6.6790   -2.0760    1.9800 c3        1 MOL     -0.212234
     62 C20         6.7830   -3.0820    0.7850 c         1 MOL      0.470535
     63 O10         7.0470   -4.2430    0.9430 o         1 MOL     -0.534107
     64 C21         5.5870   -2.4830    2.9730 c3        1 MOL     -0.132942
     65 C22         4.1400   -2.2430    2.4570 c         1 MOL      0.634530
     66 O11         3.8950   -2.2540    1.2270 o         1 MOL     -0.697184
     67 O12         3.1360   -2.2190    3.2320 o         1 MOL     -0.697184
     68 H28         5.3800   -0.5460    1.2020 hn        1 MOL      0.190229
     69 H29         7.6210   -2.1090    2.5200 h1        1 MOL      0.165194
     70 H30         5.7120   -1.9150    3.8890 hc        1 MOL      0.083646
     71 H31         5.7080   -3.4860    3.3820 hc        1 MOL      0.083646
     72 N7          6.4710   -2.6540   -0.4320 n         1 MOL     -0.177577
     73 C23         6.4760   -3.4620   -1.6180 c3        1 MOL     -0.186681
     74 C24         5.2000   -4.2310   -1.8620 c         1 MOL      0.570743
     75 O13         5.2630   -5.1360   -2.7000 o         1 MOL     -0.568177
     76 H32         6.2840   -1.6730   -0.5460 hn        1 MOL      0.204274
     77 H33         7.3290   -4.1420   -1.5930 h1        1 MOL      0.095455
     78 H34         6.6450   -2.8070   -2.4790 h1        1 MOL      0.095455
     79 N8          4.1050   -3.7370   -1.2700 n         1 MOL     -0.206580
     80 C25         2.7930   -4.3310   -1.3860 c3        1 MOL     -0.345058
     81 C26         1.5950   -3.3340   -1.3340 c         1 MOL      0.939324
     82 O14         1.8160   -2.2140   -0.8530 o         1 MOL     -0.744753
     83 C27         2.5440   -5.3930   -0.2730 c3        1 MOL      0.523326
     84 C28         2.9120   -6.7930   -0.7410 c3        1 MOL     -0.391360
     85 O15         3.3390   -5.0360    0.8190 oh        1 MOL     -0.638195
     86 H35         4.2210   -2.8420   -0.8170 hn        1 MOL      0.200840
     87 H36         2.7890   -4.8480   -2.3410 h1        1 MOL      0.094191
     88 H37         1.4960   -5.3200    0.0210 h1        1 MOL     -0.051838
     89 H38         3.4920   -4.1020    0.6610 ho        1 MOL      0.466795
     90 H39         3.9720   -6.7520   -0.9660 hc        1 MOL      0.090646
     91 H40         2.6200   -7.5610   -0.0280 hc        1 MOL      0.090646
     92 H41         2.3950   -7.0300   -1.6750 hc        1 MOL      0.090646
     93 N9          0.4510   -3.6890   -1.9350 n         1 MOL     -0.765274
     94 C29        -0.6560   -2.7280   -2.0600 c3        1 MOL      0.075952
     95 C30        -1.8790   -3.3210   -1.2940 c         1 MOL      0.454006
     96 O16        -2.3830   -4.4170   -1.5560 o         1 MOL     -0.563234
     97 C31        -1.0060   -2.5360   -3.5170 c3        1 MOL      0.237204
     98 C32         0.2240   -2.0040   -4.3310 c3        1 MOL      0.000289
     99 C33        -2.2240   -1.6270   -3.8030 c3        1 MOL     -0.476936
    100 C34         0.1210   -2.3540   -5.8640 c3        1 MOL     -0.034401
    101 H42         0.3770   -4.5370   -2.4750 hn        1 MOL      0.359913
    102 H43        -0.3760   -1.7490   -1.6800 h1        1 MOL      0.091837
    103 H44        -1.0600   -3.4920   -4.0340 hc        1 MOL     -0.021345
    104 H45         1.1920   -2.4070   -4.0340 hc        1 MOL      0.017505
    105 H46         0.1780   -0.9170   -4.2590 hc        1 MOL      0.017505
    106 H47        -2.3430   -1.4360   -4.8740 hc        1 MOL      0.094606
    107 H48        -3.1850   -1.9630   -3.4210 hc        1 MOL      0.094606
    108 H49        -1.9710   -0.6680   -3.3590 hc        1 MOL      0.094606
    109 H50         0.2640   -3.4050   -6.1200 hc        1 MOL      0.007356
    110 H51        -0.7950   -2.0050   -6.3440 hc        1 MOL      0.007356
    111 H52         0.9460   -1.8300   -6.3410 hc        1 MOL      0.007356
    112 N10        -2.4510   -2.5560   -0.3830 n         1 MOL      0.031552
    113 C35        -3.6670   -2.8610    0.3190 c3        1 MOL     -0.079194
    114 C36        -4.9510   -2.4050   -0.4330 c         1 MOL      0.379924
    115 O17        -4.7900   -1.5500   -1.3030 o         1 MOL     -0.342410
    116 C37        -3.7510   -2.1580    1.6720 c3        1 MOL      0.121063
    117 C38        -2.5240   -2.4160    2.5330 c3        1 MOL     -0.477574
    118 O18        -3.9000   -0.7680    1.6330 oh        1 MOL     -0.426911
    119 H53        -1.9230   -1.7780   -0.0040 hn        1 MOL      0.053167
    120 H54        -3.7930   -3.9230    0.4980 h1        1 MOL      0.063327
    121 H55        -4.6690   -2.5580    2.1010 h1        1 MOL      0.038372
    122 H56        -3.0380   -0.4070    1.4250 ho        1 MOL      0.381277
    123 H57        -2.2960   -1.6860    3.3140 hc        1 MOL      0.140209
    124 H58        -2.4970   -3.3660    3.0490 hc        1 MOL      0.140209
    125 H59        -1.5860   -2.4820    1.9740 hc        1 MOL      0.140209
    126 N11        -6.1060   -2.9460   -0.1420 n         1 MOL     -0.346281
    127 C39        -7.3810   -2.3970   -0.6510 c3        1 MOL     -0.078303
    128 C40        -7.6160   -0.8690   -0.4460 c         1 MOL      0.293850
    129 O19        -8.1500   -0.2170   -1.3860 o         1 MOL     -0.440224
    130 C41        -8.6560   -3.0670   -0.0750 c3        1 MOL      0.215925
    131 C42        -8.8920   -4.4790   -0.4720 c3        1 MOL     -0.332294
    132 O20        -8.6180   -3.0400    1.3640 oh        1 MOL     -0.615113
    133 H60        -6.1370   -3.6390    0.5850 hn        1 MOL      0.320005
    134 H61        -7.5280   -2.6020   -1.7100 h1        1 MOL      0.138950
    135 H62        -9.4700   -2.4760   -0.5090 h1        1 MOL      0.067059
    136 H63        -9.5290   -3.1060    1.6530 ho        1 MOL      0.397906
    137 H64        -8.8850   -4.6040   -1.5590 hc        1 MOL      0.101928
    138 H65        -8.0740   -5.0730   -0.0460 hc        1 MOL      0.101928
    139 H66        -9.8680   -4.8900   -0.1970 hc        1 MOL      0.101928
    140 N12        -7.1680   -0.3180    0.7100 n         1 MOL     -0.277409
    141 C43        -6.9740    1.1060    0.9800 c3        1 MOL     -0.044334
    142 C44        -6.0350    1.8400   -0.0180 c         1 MOL      0.346216
    143 O21        -6.2830    3.0100   -0.4360 o         1 MOL     -0.515902
    144 C45        -6.5970    1.4460    2.4160 c3        1 MOL      0.027010
    145 C46        -7.6420    1.0370    3.4760 c3        1 MOL      0.072646
    146 C47        -7.0850    1.3160    4.8470 c3        1 MOL     -0.050362
    147 C48        -8.0820    0.8420    5.9200 c3        1 MOL      0.015873
    148 N13        -7.5200    1.0010    7.2850 n4        1 MOL     -0.398699
    149 H67        -7.0010   -0.9710    1.4600 hn        1 MOL      0.302925
    150 H68        -7.8730    1.6580    0.6880 h1        1 MOL      0.091778
    151 H69        -6.3720    2.4930    2.5950 hc        1 MOL      0.016908
    152 H70        -5.6690    0.9090    2.5990 hc        1 MOL      0.016908
    153 H71        -7.9300   -0.0140    3.3320 hc        1 MOL     -0.019948
    154 H72        -8.5160    1.6360    3.2450 hc        1 MOL     -0.019948
    155 H73        -6.9720    2.3960    4.8860 hc        1 MOL      0.046047
    156 H74        -6.0940    0.8720    4.8320 hc        1 MOL      0.046047
    157 H75        -8.3290   -0.1950    5.6890 hx        1 MOL      0.092130
    158 H76        -8.9720    1.4650    5.9520 hx        1 MOL      0.092130
    159 H77        -7.2190    1.9560    7.3700 hn        1 MOL      0.334039
    160 H78        -8.2660    0.7360    7.9100 hn        1 MOL      0.334039
    161 H79        -6.7360    0.3610    7.3760 hn        1 MOL      0.334039
    162 N14        -4.8970    1.2030   -0.3190 n         1 MOL      0.005444
    163 C49        -3.9360    1.9150   -1.2100 c3        1 MOL     -0.111425
    164 C50        -4.4050    1.9560   -2.6670 c         1 MOL      0.494973
    165 O22        -4.0570    2.8630   -3.3660 o         1 MOL     -0.554646
    166 C51        -2.5530    1.2140   -1.1820 c3        1 MOL      0.083510
    167 C52        -1.8880    1.7480    0.1250 c3        1 MOL     -0.099179
    168 C53        -0.6500    0.9630    0.5050 c         1 MOL      0.820356
    169 O23         0.4700    1.4690    0.7500 o         1 MOL     -0.760247
    170 O24        -0.7180   -0.2850    0.6330 o         1 MOL     -0.760247
    171 H80        -4.6960    0.3010    0.0820 hn        1 MOL     -0.059120
    172 H81        -3.8540    2.9400   -0.8570 h1        1 MOL      0.111835
    173 H82        -1.8890    1.4960   -1.9970 hc        1 MOL      0.039290
    174 H83        -2.5950    0.1270   -1.1750 hc        1 MOL      0.039290
    175 H84        -2.4840    1.6020    1.0230 hc        1 MOL     -0.022113
    176 H85        -1.6150    2.8020    0.0270 hc        1 MOL     -0.022113
    177 N15        -5.1980    0.9800   -3.0720 n         1 MOL     -0.146033
    178 C54        -6.0700    1.1360   -4.2660 c3        1 MOL     -0.301521
    179 H86        -7.1150    1.1020   -3.9590 h1        1 MOL      0.114315
    180 H87        -5.8640    2.0920   -4.7450 h1        1 MOL      0.114315
    181 H88        -5.8720    0.3260   -4.9690 h1        1 MOL      0.114315
    182 H89        -5.3700    0.1260   -2.5630 hn        1 MOL      0.195018
    183 Ca1         1.7600   -0.8260    1.3560 Ca        1 MOL      1.779717
    184 O25         1.1040   -3.3340    2.1970 oh        1 MOL     -0.940159
    185 H90         1.9350   -3.0560    2.5930 ho        1 MOL      0.416477
    186 H91         0.7970   -4.0470    2.7730 ho        1 MOL      0.416477
    187 O26         0.6590   -0.1180    3.8590 oh        1 MOL     -0.940159
    188 H92         1.4930    0.1750    4.2400 ho        1 MOL      0.416477
    189 H93         0.1660   -0.4630    4.6040 ho        1 MOL      0.416477
@<TRIPOS>BOND
     1    1    2 1   
     2    1    4 1   
     3    1    5 1   
     4    1    6 1   
     5    2    3 2   
     6    2    7 1   
     7    7    8 1   
     8    7   15 1   
     9    8    9 1   
    10    8   11 1   
    11    8   16 1   
    12    9   10 2   
    13    9   19 1   
    14   11   12 1   
    15   11   17 1   
    16   11   18 1   
    17   12   13 1   
    18   12   14 1   
    19   19   20 1   
    20   19   28 1   
    21   20   21 1   
    22   20   23 1   
    23   20   29 1   
    24   21   22 2   
    25   21   41 1   
    26   23   24 1   
    27   23   30 1   
    28   23   31 1   
    29   24   25 1   
    30   24   32 1   
    31   24   33 1   
    32   25   26 1   
    33   25   34 1   
    34   25   35 1   
    35   26   27 1   
    36   26   36 1   
    37   26   37 1   
    38   27   38 1   
    39   27   39 1   
    40   27   40 1   
    41   41   42 1   
    42   41   49 1   
    43   42   43 1   
    44   42   45 1   
    45   42   50 1   
    46   43   44 2   
    47   43   53 1   
    48   45   46 1   
    49   45   51 1   
    50   45   52 1   
    51   46   47 1   
    52   46   48 1   
    53   53   54 1   
    54   53   57 1   
    55   54   55 1   
    56   54   58 1   
    57   54   59 1   
    58   55   56 2   
    59   55   60 1   
    60   60   61 1   
    61   60   68 1   
    62   61   62 1   
    63   61   64 1   
    64   61   69 1   
    65   62   63 2   
    66   62   72 1   
    67   64   65 1   
    68   64   70 1   
    69   64   71 1   
    70   65   66 1   
    71   65   67 1   
    72   72   73 1   
    73   72   76 1   
    74   73   74 1   
    75   73   77 1   
    76   73   78 1   
    77   74   75 2   
    78   74   79 1   
    79   79   80 1   
    80   79   86 1   
    81   80   81 1   
    82   80   83 1   
    83   80   87 1   
    84   81   82 2   
    85   81   93 1   
    86   83   84 1   
    87   83   85 1   
    88   83   88 1   
    89   84   90 1   
    90   84   91 1   
    91   84   92 1   
    92   85   89 1   
    93   93   94 1   
    94   93  101 1   
    95   94   95 1   
    96   94   97 1   
    97   94  102 1   
    98   95   96 2   
    99   95  112 1   
   100   97   98 1   
   101   97   99 1   
   102   97  103 1   
   103   98  100 1   
   104   98  104 1   
   105   98  105 1   
   106   99  106 1   
   107   99  107 1   
   108   99  108 1   
   109  100  109 1   
   110  100  110 1   
   111  100  111 1   
   112  112  113 1   
   113  112  119 1   
   114  113  114 1   
   115  113  116 1   
   116  113  120 1   
   117  114  115 2   
   118  114  126 1   
   119  116  117 1   
   120  116  118 1   
   121  116  121 1   
   122  117  123 1   
   123  117  124 1   
   124  117  125 1   
   125  118  122 1   
   126  126  127 1   
   127  126  133 1   
   128  127  128 1   
   129  127  130 1   
   130  127  134 1   
   131  128  129 2   
   132  128  140 1   
   133  130  131 1   
   134  130  132 1   
   135  130  135 1   
   136  131  137 1   
   137  131  138 1   
   138  131  139 1   
   139  132  136 1   
   140  140  141 1   
   141  140  149 1   
   142  141  142 1   
   143  141  144 1   
   144  141  150 1   
   145  142  143 2   
   146  142  162 1   
   147  144  145 1   
   148  144  151 1   
   149  144  152 1   
   150  145  146 1   
   151  145  153 1   
   152  145  154 1   
   153  146  147 1   
   154  146  155 1   
   155  146  156 1   
   156  147  148 1   
   157  147  157 1   
   158  147  158 1   
   159  148  159 1   
   160  148  160 1   
   161  148  161 1   
   162  162  163 1   
   163  162  171 1   
   164  163  164 1   
   165  163  166 1   
   166  163  172 1   
   167  164  165 2   
   168  164  177 1   
   169  166  167 1   
   170  166  173 1   
   171  166  174 1   
   172  167  168 1   
   173  167  175 1   
   174  167  176 1   
   175  168  169 1   
   176  168  170 1   
   177  177  178 1   
   178  177  182 1   
   179  178  179 1   
   180  178  180 1   
   181  178  181 1   
   182  184  185 1   
   183  184  186 1   
   184  187  188 1   
   185  187  189 1   
@<TRIPOS>SUBSTRUCTURE
     1 MOL         1 TEMP              0 ****  ****    0 ROOT
