@<TRIPOS>MOLECULE
MOL
  189   185     1     0     0
SMALL
resp


@<TRIPOS>ATOM
      1 C1          0.0800   -2.9730    6.0790 c3        1 MOL     -0.331334
      2 C2          0.4570   -2.6290    4.6960 c         1 MOL      0.838059
      3 O1          0.8190   -1.5410    4.3710 o         1 MOL     -0.635543
      4 H1          0.9810   -3.0900    6.6820 hc        1 MOL      0.077017
      5 H2         -0.5370   -2.1780    6.4970 hc        1 MOL      0.077017
      6 H3         -0.4810   -3.9080    6.0820 hc        1 MOL      0.077017
      7 N1          0.5600   -3.6530    3.8530 n         1 MOL     -0.691398
      8 C3          1.2840   -3.6270    2.6200 c3        1 MOL      0.477049
      9 C4          0.8510   -4.7470    1.7020 c         1 MOL      0.392964
     10 O2          0.5880   -5.8690    2.1090 o         1 MOL     -0.579838
     11 C5          2.7630   -3.7830    2.8590 c3        1 MOL     -0.385761
     12 C6          3.7070   -3.4930    1.6680 c         1 MOL      0.697794
     13 O3          3.4080   -2.5530    0.8790 o         1 MOL     -0.640188
     14 O4          4.6520   -4.2750    1.4660 o         1 MOL     -0.640188
     15 H4          0.1470   -4.4980    4.2130 hn        1 MOL      0.307737
     16 H5          1.1890   -2.6300    2.1980 h1        1 MOL     -0.128943
     17 H6          2.8770   -4.8360    3.1070 hc        1 MOL      0.069213
     18 H7          3.0630   -3.1110    3.6610 hc        1 MOL      0.069213
     19 N2          0.8110   -4.5490    0.3580 n         1 MOL      0.081273
     20 C7          0.6640   -5.6630   -0.6400 c3        1 MOL     -0.182944
     21 C8          1.7960   -5.5370   -1.6850 c         1 MOL      0.420224
     22 O5          1.8120   -6.3320   -2.6520 o         1 MOL     -0.545809
     23 C9         -0.7180   -5.6980   -1.2600 c3        1 MOL      0.255821
     24 C10        -1.0520   -4.2800   -1.8610 c3        1 MOL     -0.039613
     25 C11        -1.7180   -6.2110   -0.1620 c3        1 MOL     -0.207326
     26 C12        -2.3510   -4.3150   -2.6520 c3        1 MOL     -0.315383
     27 H8          0.9420   -3.5950    0.0470 hn        1 MOL     -0.007305
     28 H9          0.8660   -6.5640   -0.0740 h1        1 MOL      0.106099
     29 H10        -0.6410   -6.3850   -2.1000 hc        1 MOL     -0.027778
     30 H11        -0.3670   -3.9920   -2.6520 hc        1 MOL      0.072395
     31 H12        -1.1040   -3.4620   -1.1500 hc        1 MOL      0.072395
     32 H13        -1.9290   -5.4140    0.5530 hc        1 MOL      0.035367
     33 H14        -2.6230   -6.5390   -0.6780 hc        1 MOL      0.035367
     34 H15        -1.3600   -7.1070    0.3400 hc        1 MOL      0.035367
     35 H16        -2.2320   -4.8380   -3.6020 hc        1 MOL      0.078984
     36 H17        -3.1720   -4.7880   -2.1290 hc        1 MOL      0.078984
     37 H18        -2.6880   -3.2970   -2.8590 hc        1 MOL      0.078984
     38 N3          2.6840   -4.4830   -1.7180 n         1 MOL     -0.282468
     39 C13         3.5010   -4.0670   -2.8840 c3        1 MOL      0.081102
     40 C14         4.8070   -3.4870   -2.4430 c         1 MOL      0.291881
     41 O6          5.7340   -3.3580   -3.3330 o         1 MOL     -0.557378
     42 C15         2.7070   -3.1370   -3.8370 c3        1 MOL     -0.310360
     43 C16         2.3830   -1.7280   -3.3090 c         1 MOL      0.824737
     44 O7          2.8700   -1.2430   -2.2900 o         1 MOL     -0.740611
     45 O8          1.6080   -1.0100   -3.9790 o         1 MOL     -0.740611
     46 H19         2.7610   -3.8870   -0.9160 hn        1 MOL      0.134071
     47 H20         3.7470   -4.9570   -3.4540 h1        1 MOL      0.094586
     48 H21         1.7390   -3.5580   -4.0960 hc        1 MOL      0.085225
     49 H22         3.3290   -2.9030   -4.7060 hc        1 MOL      0.085225
     50 N4          5.0880   -3.3190   -1.1770 n         1 MOL     -0.019098
     51 C17         6.4510   -2.9890   -0.7550 c3        1 MOL     -0.207735
     52 C18         7.0020   -1.6450   -1.2500 c         1 MOL      0.527326
     53 O9          8.2570   -1.5790   -1.2700 o         1 MOL     -0.615438
     54 H23         4.4560   -3.5370   -0.4130 hn        1 MOL      0.110109
     55 H24         7.1980   -3.7040   -1.1210 h1        1 MOL      0.092317
     56 H25         6.5220   -2.8610    0.3310 h1        1 MOL      0.092317
     57 N5          6.1380   -0.7060   -1.6640 n         1 MOL     -0.190886
     58 C19         6.6790    0.5710   -2.3040 c3        1 MOL     -0.126679
     59 C20         7.2400    1.7700   -1.3820 c         1 MOL      0.414229
     60 O10         7.8050    2.7730   -1.9050 o         1 MOL     -0.522480
     61 C21         5.6130    1.2200   -3.2340 c3        1 MOL     -0.254927
     62 C22         4.2880    1.5490   -2.5800 c         1 MOL      0.822637
     63 O11         4.1580    1.3590   -1.3320 o         1 MOL     -0.714393
     64 O12         3.4330    2.1920   -3.1760 o         1 MOL     -0.714393
     65 H26         5.1440   -0.8510   -1.6200 hn        1 MOL      0.225261
     66 H27         7.5660    0.2460   -2.8270 h1        1 MOL      0.129134
     67 H28         5.3870    0.5940   -4.1030 hc        1 MOL      0.077340
     68 H29         6.1010    2.1290   -3.5900 hc        1 MOL      0.077340
     69 N6          6.9800    1.6630   -0.0340 n         1 MOL     -0.218896
     70 C23         7.2550    2.5350    1.0170 c3        1 MOL     -0.227233
     71 C24         6.0660    3.4500    1.4230 c         1 MOL      0.629744
     72 O13         6.2650    4.1900    2.3610 o         1 MOL     -0.592304
     73 H30         6.4410    0.8800    0.3040 hn        1 MOL      0.231176
     74 H31         8.0620    3.2470    0.8210 h1        1 MOL      0.098458
     75 H32         7.5260    1.8880    1.8440 h1        1 MOL      0.098458
     76 N7          4.9030    3.4500    0.6730 n         1 MOL     -0.487494
     77 C25         3.7640    4.3380    0.8750 c3        1 MOL      0.005113
     78 C26         2.5320    3.4410    1.2370 c         1 MOL      0.550902
     79 O14         2.4720    2.2930    0.7710 o         1 MOL     -0.577380
     80 C27         3.4100    5.2460   -0.3210 c3        1 MOL     -0.009481
     81 C28         4.3680    6.4290   -0.2190 c3        1 MOL     -0.232380
     82 C29         4.2070    7.4650   -1.3080 c         1 MOL      0.706730
     83 N8          5.0500    7.5650   -2.2690 n         1 MOL     -0.809950
     84 O15         3.3370    8.2950   -1.2060 o         1 MOL     -0.612610
     85 H33         4.9680    2.9980   -0.2260 hn        1 MOL      0.337135
     86 H34         3.9440    4.8720    1.8110 h1        1 MOL      0.065910
     87 H35         2.3850    5.6120   -0.3680 hc        1 MOL      0.065780
     88 H36         3.5400    4.6870   -1.2460 hc        1 MOL      0.065780
     89 H37         5.4110    6.1110   -0.2230 hc        1 MOL      0.069355
     90 H38         4.1900    6.9910    0.6920 hc        1 MOL      0.069355
     91 H39         5.7720    6.8760   -2.3790 hn        1 MOL      0.365985
     92 H40         4.8720    8.2920   -2.9400 hn        1 MOL      0.365985
     93 N9          1.5830    3.8980    2.0500 n         1 MOL     -0.505692
     94 C30         0.4530    3.0520    2.4600 c3        1 MOL     -0.019427
     95 C31        -0.8150    3.4300    1.6360 c         1 MOL      0.624472
     96 O16        -1.1280    4.5810    1.4740 o         1 MOL     -0.603816
     97 C32         0.2390    3.1870    3.9690 c3        1 MOL      0.242766
     98 C33        -0.1150    4.5730    4.5600 c3        1 MOL     -0.355274
     99 C34        -0.9230    2.2970    4.4800 c3        1 MOL     -0.355274
    100 H41         1.6830    4.8550    2.3560 hn        1 MOL      0.297344
    101 H42         0.6860    2.0180    2.2200 h1        1 MOL      0.149138
    102 H43         1.1720    2.9150    4.4710 hc        1 MOL     -0.010607
    103 H44        -0.2000    4.4490    5.6400 hc        1 MOL      0.079577
    104 H45         0.6920    5.2670    4.2930 hc        1 MOL      0.079577
    105 H46        -1.0940    4.9530    4.2620 hc        1 MOL      0.079577
    106 H47        -0.7100    1.2660    4.2000 hc        1 MOL      0.079577
    107 H48        -0.8730    2.2100    5.5670 hc        1 MOL      0.079577
    108 H49        -1.8760    2.7340    4.1730 hc        1 MOL      0.079577
    109 N10        -1.4760    2.4270    1.0720 n         1 MOL     -0.271290
    110 C35        -2.6280    2.6080    0.1430 c3        1 MOL      0.109294
    111 C36        -4.0030    2.3700    0.8690 c         1 MOL      0.273914
    112 O17        -4.0320    1.8820    2.0160 o         1 MOL     -0.390623
    113 C37        -2.3820    1.6070   -0.9560 c3        1 MOL     -0.189625
    114 C38        -3.4490    1.5740   -1.9930 c         1 MOL      0.759301
    115 N11        -3.2720    2.2880   -3.0750 n         1 MOL     -0.847367
    116 O18        -4.4370    0.8970   -1.9140 o         1 MOL     -0.568078
    117 H50        -1.0290    1.5240    1.0070 hn        1 MOL      0.215049
    118 H51        -2.7600    3.6140   -0.2590 h1        1 MOL      0.041702
    119 H52        -2.3300    0.6050   -0.5350 hc        1 MOL      0.067154
    120 H53        -1.3960    1.7920   -1.3810 hc        1 MOL      0.067154
    121 H54        -2.5020    2.9140   -3.3010 hn        1 MOL      0.386175
    122 H55        -3.8660    2.0250   -3.8430 hn        1 MOL      0.386175
    123 N12        -5.1610    2.7590    0.2680 n         1 MOL     -0.247313
    124 C39        -6.5060    2.5120    0.9300 c3        1 MOL      0.016085
    125 C40        -6.9380    0.9630    1.0000 c         1 MOL      0.366105
    126 O19        -8.0010    0.6810    1.6240 o         1 MOL     -0.560061
    127 C41        -7.5880    3.1940    0.1270 c3        1 MOL     -0.258889
    128 C42        -7.5460    3.0100   -1.3750 ca        1 MOL      0.134508
    129 C43        -8.2350    1.9180   -1.9330 ca        1 MOL     -0.221739
    130 C44        -6.8210    3.9070   -2.1990 ca        1 MOL     -0.221739
    131 C45        -8.2520    1.8080   -3.3320 ca        1 MOL     -0.306677
    132 C46        -6.7390    3.7030   -3.5960 ca        1 MOL     -0.306677
    133 C47        -7.5570    2.7000   -4.1960 ca        1 MOL      0.389498
    134 O20        -7.6340    2.5140   -5.5150 oh        1 MOL     -0.506996
    135 H56        -5.0820    3.1640   -0.6460 hn        1 MOL      0.178070
    136 H57        -6.3740    2.7890    1.9800 h1        1 MOL      0.100401
    137 H58        -7.6770    4.2550    0.3800 hc        1 MOL      0.088027
    138 H59        -8.5550    2.8260    0.4580 hc        1 MOL      0.088027
    139 H60        -8.8890    1.3210   -1.3260 ha        1 MOL      0.149250
    140 H61        -6.3030    4.7230   -1.7090 ha        1 MOL      0.149250
    141 H62        -8.8030    0.9970   -3.7790 ha        1 MOL      0.156308
    142 H63        -6.0170    4.2520   -4.1920 ha        1 MOL      0.156308
    143 H64        -8.2550    1.7870   -5.6180 ho        1 MOL      0.389208
    144 N13        -6.2310    0.0990    0.2650 n         1 MOL     -0.132939
    145 C48        -6.4050   -1.4060    0.3870 c3        1 MOL     -0.119027
    146 C49        -5.3940   -2.0090    1.2660 c         1 MOL      0.474590
    147 O21        -5.4690   -3.1900    1.5290 o         1 MOL     -0.539556
    148 C50        -6.1660   -1.9210   -1.0920 c3        1 MOL     -0.005187
    149 C51        -7.2130   -1.4640   -2.1120 c3        1 MOL     -0.106434
    150 C52        -7.0070   -2.0650   -3.5000 c         1 MOL      0.627613
    151 O22        -7.0280   -3.2930   -3.7270 o         1 MOL     -0.700724
    152 O23        -6.8500   -1.2050   -4.4250 o         1 MOL     -0.700724
    153 H65        -5.6600    0.4630   -0.4830 hn        1 MOL      0.414054
    154 H66        -7.4410   -1.6130    0.6630 h1        1 MOL      0.115415
    155 H67        -6.2900   -3.0070   -1.0970 hc        1 MOL      0.024673
    156 H68        -5.1780   -1.7060   -1.4810 hc        1 MOL      0.024673
    157 H69        -7.2460   -0.3770   -2.1420 hc        1 MOL      0.013131
    158 H70        -8.1960   -1.7810   -1.7570 hc        1 MOL      0.013131
    159 N14        -4.4170   -1.2410    1.7520 n         1 MOL     -0.094101
    160 C53        -3.4330   -1.6240    2.7870 c3        1 MOL     -0.117038
    161 C54        -3.7260   -1.1710    4.1590 c         1 MOL      0.530859
    162 O24        -3.6160   -1.9010    5.1570 o         1 MOL     -0.570916
    163 C55        -2.0530   -1.0980    2.2600 c3        1 MOL     -0.009039
    164 C56        -1.5250   -1.6450    0.9610 c3        1 MOL     -0.194411
    165 C57        -0.1650   -1.0580    0.5420 c         1 MOL      0.783010
    166 O25         0.2000    0.0010    1.0570 o         1 MOL     -0.703733
    167 O26         0.6100   -1.6880   -0.1750 o         1 MOL     -0.703733
    168 H71        -4.3070   -0.2830    1.4440 hn        1 MOL     -0.165014
    169 H72        -3.4190   -2.7120    2.8430 h1        1 MOL      0.095199
    170 H73        -1.2740   -1.2350    3.0130 hc        1 MOL      0.010895
    171 H74        -2.1680   -0.0350    2.0520 hc        1 MOL      0.010895
    172 H75        -2.1480   -1.4440    0.0840 hc        1 MOL      0.072268
    173 H76        -1.3700   -2.7230    1.0030 hc        1 MOL      0.072268
    174 N15        -4.2160    0.0860    4.2500 n         1 MOL     -0.182915
    175 C58        -4.6170    0.7280    5.4940 c3        1 MOL     -0.249109
    176 H77        -5.7010    0.6730    5.5970 h1        1 MOL      0.092211
    177 H78        -4.1460    0.2200    6.3350 h1        1 MOL      0.092211
    178 H79        -4.3070    1.7730    5.4800 h1        1 MOL      0.092211
    179 H80        -4.3470    0.6050    3.3930 hn        1 MOL      0.226500
    180 Ca1         2.7430   -0.2290    0.0400 Ca        1 MOL      1.762024
    181 O27         5.1290   -0.4290    1.1390 oh        1 MOL     -0.923908
    182 H81         5.2140    0.2410    1.8250 ho        1 MOL      0.434501
    183 H82         5.2980   -1.2520    1.5860 ho        1 MOL      0.434501
    184 O28         2.6280   -0.1530    2.8580 oh        1 MOL     -0.923908
    185 H83         3.2030   -0.5480    3.5170 ho        1 MOL      0.434501
    186 H84         1.7620   -0.1630    3.2570 ho        1 MOL      0.434501
    187 O29         1.1770    1.0980   -1.7490 oh        1 MOL     -0.923908
    188 H85         1.9270    1.5480   -2.1460 ho        1 MOL      0.434501
    189 H86         0.8500    0.5270   -2.4480 ho        1 MOL      0.434501
@<TRIPOS>BOND
     1    1    2 1   
     2    1    4 1   
     3    1    5 1   
     4    1    6 1   
     5    2    3 2   
     6    2    7 1   
     7    7    8 1   
     8    7   15 1   
     9    8    9 1   
    10    8   11 1   
    11    8   16 1   
    12    9   10 2   
    13    9   19 1   
    14   11   12 1   
    15   11   17 1   
    16   11   18 1   
    17   12   13 1   
    18   12   14 1   
    19   19   20 1   
    20   19   27 1   
    21   20   21 1   
    22   20   23 1   
    23   20   28 1   
    24   21   22 2   
    25   21   38 1   
    26   23   24 1   
    27   23   25 1   
    28   23   29 1   
    29   24   26 1   
    30   24   30 1   
    31   24   31 1   
    32   25   32 1   
    33   25   33 1   
    34   25   34 1   
    35   26   35 1   
    36   26   36 1   
    37   26   37 1   
    38   38   39 1   
    39   38   46 1   
    40   39   40 1   
    41   39   42 1   
    42   39   47 1   
    43   40   41 2   
    44   40   50 1   
    45   42   43 1   
    46   42   48 1   
    47   42   49 1   
    48   43   44 1   
    49   43   45 1   
    50   50   51 1   
    51   50   54 1   
    52   51   52 1   
    53   51   55 1   
    54   51   56 1   
    55   52   53 2   
    56   52   57 1   
    57   57   58 1   
    58   57   65 1   
    59   58   59 1   
    60   58   61 1   
    61   58   66 1   
    62   59   60 2   
    63   59   69 1   
    64   61   62 1   
    65   61   67 1   
    66   61   68 1   
    67   62   63 1   
    68   62   64 1   
    69   69   70 1   
    70   69   73 1   
    71   70   71 1   
    72   70   74 1   
    73   70   75 1   
    74   71   72 2   
    75   71   76 1   
    76   76   77 1   
    77   76   85 1   
    78   77   78 1   
    79   77   80 1   
    80   77   86 1   
    81   78   79 2   
    82   78   93 1   
    83   80   81 1   
    84   80   87 1   
    85   80   88 1   
    86   81   82 1   
    87   81   89 1   
    88   81   90 1   
    89   82   83 1   
    90   82   84 2   
    91   83   91 1   
    92   83   92 1   
    93   93   94 1   
    94   93  100 1   
    95   94   95 1   
    96   94   97 1   
    97   94  101 1   
    98   95   96 2   
    99   95  109 1   
   100   97   98 1   
   101   97   99 1   
   102   97  102 1   
   103   98  103 1   
   104   98  104 1   
   105   98  105 1   
   106   99  106 1   
   107   99  107 1   
   108   99  108 1   
   109  109  110 1   
   110  109  117 1   
   111  110  111 1   
   112  110  113 1   
   113  110  118 1   
   114  111  112 2   
   115  111  123 1   
   116  113  114 1   
   117  113  119 1   
   118  113  120 1   
   119  114  115 1   
   120  114  116 2   
   121  115  121 1   
   122  115  122 1   
   123  123  124 1   
   124  123  135 1   
   125  124  125 1   
   126  124  127 1   
   127  124  136 1   
   128  125  126 2   
   129  125  144 1   
   130  127  128 1   
   131  127  137 1   
   132  127  138 1   
   133  128  129 ar  
   134  128  130 ar  
   135  129  131 ar  
   136  129  139 1   
   137  130  132 ar  
   138  130  140 1   
   139  131  133 ar  
   140  131  141 1   
   141  132  133 ar  
   142  132  142 1   
   143  133  134 1   
   144  134  143 1   
   145  144  145 1   
   146  144  153 1   
   147  145  146 1   
   148  145  148 1   
   149  145  154 1   
   150  146  147 2   
   151  146  159 1   
   152  148  149 1   
   153  148  155 1   
   154  148  156 1   
   155  149  150 1   
   156  149  157 1   
   157  149  158 1   
   158  150  151 1   
   159  150  152 1   
   160  159  160 1   
   161  159  168 1   
   162  160  161 1   
   163  160  163 1   
   164  160  169 1   
   165  161  162 2   
   166  161  174 1   
   167  163  164 1   
   168  163  170 1   
   169  163  171 1   
   170  164  165 1   
   171  164  172 1   
   172  164  173 1   
   173  165  166 1   
   174  165  167 1   
   175  174  175 1   
   176  174  179 1   
   177  175  176 1   
   178  175  177 1   
   179  175  178 1   
   180  181  182 1   
   181  181  183 1   
   182  184  185 1   
   183  184  186 1   
   184  187  188 1   
   185  187  189 1   
@<TRIPOS>SUBSTRUCTURE
     1 MOL         1 TEMP              0 ****  ****    0 ROOT
