@<TRIPOS>MOLECULE
MOL
  189   185     1     0     0
SMALL
resp


@<TRIPOS>ATOM
      1 C1          0.2150    2.1560    6.0610 c3        1 MOL     -0.285447
      2 C2         -0.1530    1.9400    4.5680 c         1 MOL      0.685362
      3 O1          0.5670    2.4320    3.6760 o         1 MOL     -0.678096
      4 H1         -0.0080    1.2500    6.6240 hc        1 MOL      0.076197
      5 H2          1.2780    2.3840    6.1450 hc        1 MOL      0.076197
      6 H3         -0.3680    2.9840    6.4630 hc        1 MOL      0.076197
      7 N1         -1.3360    1.4950    4.2710 n         1 MOL     -0.478329
      8 C3         -1.9330    1.4110    2.9100 c3        1 MOL      0.045202
      9 C4         -2.4230    2.8030    2.4220 c         1 MOL      0.452042
     10 O2         -3.4880    3.3320    2.8830 o         1 MOL     -0.531092
     11 C5         -3.1450    0.4220    3.0050 c3        1 MOL     -0.273480
     12 C6         -3.8110    0.2380    1.6990 c         1 MOL      0.759420
     13 O3         -4.9910   -0.1070    1.8290 o         1 MOL     -0.644316
     14 O4         -3.1410    0.4610    0.6090 o         1 MOL     -0.644316
     15 H4         -1.9010    1.2140    5.0650 hn        1 MOL      0.295200
     16 H5         -1.2000    1.1000    2.1650 h1        1 MOL      0.074662
     17 H6         -3.8540    0.7780    3.7470 hc        1 MOL      0.080256
     18 H7         -2.7760   -0.5340    3.3650 hc        1 MOL      0.080256
     19 N2         -1.6760    3.4080    1.4750 n         1 MOL     -0.306617
     20 C7         -1.7890    4.8550    1.1880 c3        1 MOL      0.272184
     21 C8         -2.8130    5.2180    0.1140 c         1 MOL      0.304647
     22 O5         -3.4790    6.2110    0.3050 o         1 MOL     -0.505698
     23 C9         -0.4520    5.6080    0.9340 c3        1 MOL     -0.097755
     24 C10         0.6110    5.2700    1.9420 c3        1 MOL     -0.028965
     25 C11         1.9140    6.1080    1.6990 c3        1 MOL     -0.005430
     26 C12         2.8330    5.5880    0.5080 c3        1 MOL      0.063576
     27 N3          4.0550    6.3740    0.4170 n4        1 MOL     -0.513601
     28 H8         -1.0000    2.8550    0.9690 hn        1 MOL      0.243215
     29 H9         -2.2790    5.3350    2.0230 h1        1 MOL      0.026452
     30 H10        -0.7190    6.6460    1.1030 hc        1 MOL      0.009089
     31 H11        -0.1490    5.4180   -0.0900 hc        1 MOL      0.009089
     32 H12         0.8620    4.2070    1.9510 hc        1 MOL      0.066337
     33 H13         0.2190    5.5230    2.9220 hc        1 MOL      0.066337
     34 H14         2.5760    6.0630    2.5610 hc        1 MOL      0.037869
     35 H15         1.6490    7.1610    1.5970 hc        1 MOL      0.037869
     36 H16         2.3010    5.6760   -0.4450 hx        1 MOL      0.060710
     37 H17         2.9300    4.4990    0.4480 hx        1 MOL      0.060710
     38 H18         4.5240    6.1810   -0.4620 hn        1 MOL      0.341844
     39 H19         3.9170    7.3560    0.6220 hn        1 MOL      0.341844
     40 H20         4.7540    5.9680    1.0210 hn        1 MOL      0.341844
     41 N4         -2.8170    4.4810   -1.0020 n         1 MOL     -0.299526
     42 C13        -3.8670    4.5550   -2.0840 c3        1 MOL      0.140426
     43 C14        -5.2840    4.1130   -1.5700 c         1 MOL      0.435223
     44 O6         -6.2870    4.4340   -2.1240 o         1 MOL     -0.529700
     45 C15        -3.3330    3.7550   -3.2420 c3        1 MOL     -0.469947
     46 C16        -2.9650    2.2980   -2.9590 c         1 MOL      0.925470
     47 O7         -2.1360    1.6900   -3.7300 o         1 MOL     -0.784457
     48 O8         -3.4200    1.7080   -2.0110 o         1 MOL     -0.784457
     49 H21        -2.2200    3.6760   -0.9890 hn        1 MOL      0.189942
     50 H22        -4.0430    5.5970   -2.3160 h1        1 MOL      0.065134
     51 H23        -2.5060    4.3160   -3.6580 hc        1 MOL      0.120129
     52 H24        -4.1440    3.6690   -3.9750 hc        1 MOL      0.120129
     53 N5         -5.2470    3.1980   -0.5790 n         1 MOL     -0.072003
     54 C17        -6.4540    2.7580    0.1830 c3        1 MOL     -0.260005
     55 C18        -7.0350    1.4430   -0.2290 c         1 MOL      0.666051
     56 O9         -8.2300    1.3120   -0.0310 o         1 MOL     -0.596455
     57 H25        -4.3660    2.7300   -0.3820 hn        1 MOL      0.083344
     58 H26        -7.2280    3.5270    0.1600 h1        1 MOL      0.129642
     59 H27        -6.1110    2.6210    1.2050 h1        1 MOL      0.129642
     60 N6         -6.3610    0.5820   -0.9680 n         1 MOL     -0.376725
     61 C19        -7.0120   -0.5110   -1.8480 c3        1 MOL     -0.062929
     62 C20        -7.2560   -1.8270   -1.1000 c         1 MOL      0.405282
     63 O10        -7.6840   -2.7900   -1.7650 o         1 MOL     -0.521578
     64 C21        -6.0800   -0.7090   -3.0660 c3        1 MOL     -0.256528
     65 C22        -4.6300   -0.9910   -2.6650 c         1 MOL      0.790291
     66 O11        -3.7360   -0.9120   -3.5460 o         1 MOL     -0.708676
     67 O12        -4.3930   -1.4080   -1.4920 o         1 MOL     -0.708676
     68 H28        -5.4050    0.8330   -1.1980 hn        1 MOL      0.303342
     69 H29        -7.9420   -0.1160   -2.2580 h1        1 MOL      0.138163
     70 H30        -6.0640    0.2380   -3.5970 hc        1 MOL      0.093639
     71 H31        -6.4550   -1.4900   -3.7360 hc        1 MOL      0.093639
     72 N7         -6.8670   -1.9500    0.1870 n         1 MOL     -0.133352
     73 C23        -7.0120   -3.0370    1.0990 c3        1 MOL     -0.250091
     74 C24        -5.8240   -4.0230    1.1780 c         1 MOL      0.548021
     75 O13        -5.9510   -5.1550    1.6610 o         1 MOL     -0.544655
     76 H32        -6.3790   -1.1570    0.5790 hn        1 MOL      0.217006
     77 H33        -7.9440   -3.5630    0.8700 h1        1 MOL      0.118748
     78 H34        -7.0980   -2.5180    2.0530 h1        1 MOL      0.118748
     79 N8         -4.6430   -3.5970    0.5740 n         1 MOL     -0.186730
     80 C25        -3.3270   -4.3340    0.3760 c3        1 MOL     -0.423581
     81 C26        -2.0320   -3.5260    0.6030 c         1 MOL      0.915281
     82 O14        -2.0510   -2.2580    0.3960 o         1 MOL     -0.767982
     83 C27        -3.3710   -5.0710   -0.9430 c3        1 MOL      0.541924
     84 C28        -4.3400   -6.1850   -1.0890 c3        1 MOL     -0.513313
     85 O15        -3.4940   -4.0700   -1.9150 oh        1 MOL     -0.641991
     86 H35        -4.6740   -2.6290    0.3060 hn        1 MOL      0.190234
     87 H36        -3.2920   -5.0900    1.1550 h1        1 MOL      0.102362
     88 H37        -2.3700   -5.4880   -1.0790 h1        1 MOL     -0.004734
     89 H38        -4.1950   -3.4680   -1.6560 ho        1 MOL      0.408156
     90 H39        -4.1100   -6.6500   -2.0420 hc        1 MOL      0.135855
     91 H40        -4.2270   -6.9750   -0.3520 hc        1 MOL      0.135855
     92 H41        -5.3530   -5.7720   -1.0970 hc        1 MOL      0.135855
     93 N9         -0.9470   -4.1960    0.9620 n         1 MOL     -0.637334
     94 C29         0.3270   -3.4710    1.2470 c3        1 MOL      0.055785
     95 C30         1.3570   -3.9130    0.2220 c         1 MOL      0.524733
     96 O16         1.5900   -5.1310    0.0590 o         1 MOL     -0.565876
     97 C31         0.7470   -3.6030    2.7360 c3        1 MOL      0.005273
     98 C32        -0.1190   -2.8240    3.7200 c3        1 MOL      0.148061
     99 C33         2.2640   -3.2570    2.9390 c3        1 MOL     -0.124076
    100 C34         0.2050   -3.0520    5.2040 c3        1 MOL     -0.306998
    101 H42        -0.9850   -5.1370    1.3310 hn        1 MOL      0.333626
    102 H43         0.2490   -2.4130    1.0210 h1        1 MOL      0.046968
    103 H44         0.6810   -4.6810    2.8650 hc        1 MOL      0.026968
    104 H45        -1.1440   -3.1440    3.5260 hc        1 MOL      0.001723
    105 H46        -0.0110   -1.7490    3.5830 hc        1 MOL      0.001723
    106 H47         2.4840   -3.3880    3.9990 hc        1 MOL      0.023003
    107 H48         2.8950   -3.9660    2.3910 hc        1 MOL      0.023003
    108 H49         2.4150   -2.2180    2.6570 hc        1 MOL      0.023003
    109 H50         0.1120   -4.1390    5.2900 hc        1 MOL      0.071658
    110 H51         1.2280   -2.7260    5.4300 hc        1 MOL      0.071658
    111 H52        -0.5470   -2.5640    5.8100 hc        1 MOL      0.071658
    112 N10         1.9080   -3.0130   -0.5610 n         1 MOL     -0.216327
    113 C35         3.0980   -3.1700   -1.3830 c3        1 MOL     -0.065494
    114 C36         4.3830   -3.1190   -0.5090 c         1 MOL      0.255413
    115 O17         4.3790   -2.6720    0.6290 o         1 MOL     -0.193525
    116 C37         3.1210   -2.1900   -2.5650 c3        1 MOL      0.328654
    117 C38         1.9860   -2.3250   -3.5560 c3        1 MOL     -0.456055
    118 O18         3.0050   -0.8520   -2.0800 oh        1 MOL     -0.648353
    119 H53         1.4490   -2.1150   -0.5680 hn        1 MOL      0.261672
    120 H54         3.0280   -4.1980   -1.7320 h1        1 MOL      0.071740
    121 H55         4.0300   -2.2480   -3.1500 h1        1 MOL      0.053279
    122 H56         2.1110   -0.8130   -1.7290 ho        1 MOL      0.429630
    123 H57         2.0590   -3.3630   -3.8920 hc        1 MOL      0.117840
    124 H58         1.0560   -2.1860   -2.9910 hc        1 MOL      0.117840
    125 H59         2.0910   -1.6040   -4.3660 hc        1 MOL      0.117840
    126 N11         5.5000   -3.5400   -1.1150 n         1 MOL     -0.263014
    127 C39         6.8550   -3.3560   -0.6360 c3        1 MOL     -0.077822
    128 C40         7.0990   -1.8720   -0.2920 c         1 MOL      0.438740
    129 O19         7.6720   -1.5150    0.7410 o         1 MOL     -0.502106
    130 C41         7.8780   -3.8620   -1.7310 c3        1 MOL      0.215972
    131 C42         7.7480   -5.3470   -1.9300 c3        1 MOL     -0.368727
    132 O20         7.5690   -3.3280   -3.0320 oh        1 MOL     -0.644275
    133 H60         5.3570   -3.8180   -2.0750 hn        1 MOL      0.250374
    134 H61         7.0480   -3.8150    0.3290 h1        1 MOL      0.148709
    135 H62         8.8930   -3.5610   -1.4780 h1        1 MOL      0.066256
    136 H63         8.3140   -3.5790   -3.5870 ho        1 MOL      0.430127
    137 H64         6.7010   -5.4990   -2.1940 hc        1 MOL      0.110727
    138 H65         8.3150   -5.7320   -2.7800 hc        1 MOL      0.110727
    139 H66         7.8430   -5.8340   -0.9520 hc        1 MOL      0.110727
    140 N12         6.5470   -0.8570   -1.0130 n         1 MOL     -0.364347
    141 C43         6.8080    0.5760   -0.6450 c3        1 MOL      0.001261
    142 C44         6.0280    1.0430    0.5730 c         1 MOL      0.351410
    143 O21         6.4150    1.9910    1.3050 o         1 MOL     -0.544193
    144 C45         6.5450    1.4980   -1.8130 c3        1 MOL      0.001726
    145 C46         7.1260    2.8960   -1.6520 c3        1 MOL      0.116182
    146 C47         7.1620    3.5290   -3.0610 c3        1 MOL     -0.158997
    147 C48         7.8680    4.9210   -2.9470 c3        1 MOL      0.261616
    148 N13         8.2800    5.5810   -4.2600 n4        1 MOL     -0.304721
    149 H67         6.0630   -1.0500   -1.8700 hn        1 MOL      0.263734
    150 H68         7.8580    0.7080   -0.3830 h1        1 MOL      0.113846
    151 H69         5.4570    1.6050   -1.8320 hc        1 MOL      0.023340
    152 H70         6.9340    1.0430   -2.7290 hc        1 MOL      0.023340
    153 H71         8.1390    2.9650   -1.2580 hc        1 MOL     -0.009825
    154 H72         6.4120    3.4750   -1.0730 hc        1 MOL     -0.009825
    155 H73         6.1270    3.6520   -3.3890 hc        1 MOL      0.041652
    156 H74         7.7250    2.8150   -3.6520 hc        1 MOL      0.041652
    157 H75         8.7630    4.8220   -2.3370 hx        1 MOL     -0.020535
    158 H76         7.1560    5.5840   -2.4580 hx        1 MOL     -0.020535
    159 H77         7.4630    5.6180   -4.8450 hn        1 MOL      0.272364
    160 H78         8.7250    6.4690   -4.1090 hn        1 MOL      0.272364
    161 H79         8.9580    5.0030   -4.7290 hn        1 MOL      0.272364
    162 N14         4.9100    0.2990    0.8650 n         1 MOL      0.127051
    163 C49         4.0930    0.7140    1.9740 c3        1 MOL     -0.035912
    164 C50         4.4630   -0.0650    3.1850 c         1 MOL      0.327606
    165 O22         4.5660    0.4780    4.3390 o         1 MOL     -0.544523
    166 C51         2.6330    0.4680    1.5340 c3        1 MOL      0.091951
    167 C52         2.0690    1.3980    0.4980 c3        1 MOL     -0.142781
    168 C53         0.8100    0.7890   -0.2060 c         1 MOL      0.649488
    169 O23         0.7030   -0.3990   -0.5470 o         1 MOL     -0.688292
    170 O24        -0.2200    1.5390   -0.3200 o         1 MOL     -0.688292
    171 H80         4.6460   -0.5210    0.3250 hn        1 MOL     -0.083819
    172 H81         4.2070    1.7860    2.1090 h1        1 MOL      0.055321
    173 H82         1.9980    0.3590    2.4080 hc        1 MOL      0.033816
    174 H83         2.6940   -0.5300    1.1120 hc        1 MOL      0.033816
    175 H84         2.8500    1.7500   -0.1780 hc        1 MOL      0.015049
    176 H85         1.7940    2.2930    1.0620 hc        1 MOL      0.015049
    177 N15         5.0510   -1.2450    3.0880 n         1 MOL      0.098873
    178 C54         5.6260   -2.0960    4.0730 c3        1 MOL     -0.388149
    179 H86         4.8990   -2.2780    4.8650 h1        1 MOL      0.129937
    180 H87         5.9090   -3.0440    3.6150 h1        1 MOL      0.129937
    181 H88         6.5100   -1.6170    4.4950 h1        1 MOL      0.129937
    182 H89         4.9970   -1.7230    2.1960 hn        1 MOL     -0.012547
    183 Ca1        -1.9870   -0.3190   -1.4590 Ca        1 MOL      1.778508
    184 O25        -0.1990    0.0850   -3.3890 oh        1 MOL     -0.883894
    185 H90         0.1480   -0.1810   -4.2410 ho        1 MOL      0.406464
    186 H91        -0.8210    0.7880   -3.5980 ho        1 MOL      0.406464
    187 O26        -1.3290   -2.6220   -2.5990 oh        1 MOL     -0.883894
    188 H92        -0.9820   -2.6080   -3.4840 ho        1 MOL      0.406464
    189 H93        -2.0630   -3.2420   -2.6420 ho        1 MOL      0.406464
@<TRIPOS>BOND
     1    1    2 1   
     2    1    4 1   
     3    1    5 1   
     4    1    6 1   
     5    2    3 2   
     6    2    7 1   
     7    7    8 1   
     8    7   15 1   
     9    8    9 1   
    10    8   11 1   
    11    8   16 1   
    12    9   10 2   
    13    9   19 1   
    14   11   12 1   
    15   11   17 1   
    16   11   18 1   
    17   12   13 1   
    18   12   14 1   
    19   19   20 1   
    20   19   28 1   
    21   20   21 1   
    22   20   23 1   
    23   20   29 1   
    24   21   22 2   
    25   21   41 1   
    26   23   24 1   
    27   23   30 1   
    28   23   31 1   
    29   24   25 1   
    30   24   32 1   
    31   24   33 1   
    32   25   26 1   
    33   25   34 1   
    34   25   35 1   
    35   26   27 1   
    36   26   36 1   
    37   26   37 1   
    38   27   38 1   
    39   27   39 1   
    40   27   40 1   
    41   41   42 1   
    42   41   49 1   
    43   42   43 1   
    44   42   45 1   
    45   42   50 1   
    46   43   44 2   
    47   43   53 1   
    48   45   46 1   
    49   45   51 1   
    50   45   52 1   
    51   46   47 1   
    52   46   48 1   
    53   53   54 1   
    54   53   57 1   
    55   54   55 1   
    56   54   58 1   
    57   54   59 1   
    58   55   56 2   
    59   55   60 1   
    60   60   61 1   
    61   60   68 1   
    62   61   62 1   
    63   61   64 1   
    64   61   69 1   
    65   62   63 2   
    66   62   72 1   
    67   64   65 1   
    68   64   70 1   
    69   64   71 1   
    70   65   66 1   
    71   65   67 1   
    72   72   73 1   
    73   72   76 1   
    74   73   74 1   
    75   73   77 1   
    76   73   78 1   
    77   74   75 2   
    78   74   79 1   
    79   79   80 1   
    80   79   86 1   
    81   80   81 1   
    82   80   83 1   
    83   80   87 1   
    84   81   82 2   
    85   81   93 1   
    86   83   84 1   
    87   83   85 1   
    88   83   88 1   
    89   84   90 1   
    90   84   91 1   
    91   84   92 1   
    92   85   89 1   
    93   93   94 1   
    94   93  101 1   
    95   94   95 1   
    96   94   97 1   
    97   94  102 1   
    98   95   96 2   
    99   95  112 1   
   100   97   98 1   
   101   97   99 1   
   102   97  103 1   
   103   98  100 1   
   104   98  104 1   
   105   98  105 1   
   106   99  106 1   
   107   99  107 1   
   108   99  108 1   
   109  100  109 1   
   110  100  110 1   
   111  100  111 1   
   112  112  113 1   
   113  112  119 1   
   114  113  114 1   
   115  113  116 1   
   116  113  120 1   
   117  114  115 2   
   118  114  126 1   
   119  116  117 1   
   120  116  118 1   
   121  116  121 1   
   122  117  123 1   
   123  117  124 1   
   124  117  125 1   
   125  118  122 1   
   126  126  127 1   
   127  126  133 1   
   128  127  128 1   
   129  127  130 1   
   130  127  134 1   
   131  128  129 2   
   132  128  140 1   
   133  130  131 1   
   134  130  132 1   
   135  130  135 1   
   136  131  137 1   
   137  131  138 1   
   138  131  139 1   
   139  132  136 1   
   140  140  141 1   
   141  140  149 1   
   142  141  142 1   
   143  141  144 1   
   144  141  150 1   
   145  142  143 2   
   146  142  162 1   
   147  144  145 1   
   148  144  151 1   
   149  144  152 1   
   150  145  146 1   
   151  145  153 1   
   152  145  154 1   
   153  146  147 1   
   154  146  155 1   
   155  146  156 1   
   156  147  148 1   
   157  147  157 1   
   158  147  158 1   
   159  148  159 1   
   160  148  160 1   
   161  148  161 1   
   162  162  163 1   
   163  162  171 1   
   164  163  164 1   
   165  163  166 1   
   166  163  172 1   
   167  164  165 2   
   168  164  177 1   
   169  166  167 1   
   170  166  173 1   
   171  166  174 1   
   172  167  168 1   
   173  167  175 1   
   174  167  176 1   
   175  168  169 1   
   176  168  170 1   
   177  177  178 1   
   178  177  182 1   
   179  178  179 1   
   180  178  180 1   
   181  178  181 1   
   182  184  185 1   
   183  184  186 1   
   184  187  188 1   
   185  187  189 1   
@<TRIPOS>SUBSTRUCTURE
     1 MOL         1 TEMP              0 ****  ****    0 ROOT
