@<TRIPOS>MOLECULE
MOL
  176   174     1     0     0
SMALL
resp


@<TRIPOS>ATOM
      1 C1          2.0610    4.2440    6.5830 c3        1 MOL     -0.325485
      2 C2          1.8170    3.4110    5.2400 c         1 MOL      0.675732
      3 O1          2.7960    3.0200    4.6060 o         1 MOL     -0.551405
      4 H1          1.1580    4.8000    6.8350 hc        1 MOL      0.080494
      5 H2          2.3040    3.5610    7.3960 hc        1 MOL      0.080494
      6 H3          2.8860    4.9410    6.4340 hc        1 MOL      0.080494
      7 N1          0.5540    3.4110    4.7390 n         1 MOL     -0.569223
      8 C3          0.2720    2.9870    3.3430 c3        1 MOL      0.063848
      9 C4          0.4500    4.1940    2.3780 c         1 MOL      0.647536
     10 O2          0.3260    5.3580    2.8240 o         1 MOL     -0.562548
     11 C5         -1.0840    2.2770    3.2870 c3        1 MOL     -0.125579
     12 C6         -1.2680    1.3600    2.1050 c         1 MOL      0.680740
     13 O3         -0.3980    1.4130    1.2010 o         1 MOL     -0.726330
     14 O4         -2.3280    0.7450    1.8850 o         1 MOL     -0.726330
     15 H4         -0.2060    3.6930    5.3450 hn        1 MOL      0.315661
     16 H5          0.9920    2.1850    3.1430 h1        1 MOL      0.053848
     17 H6         -1.8320    3.0720    3.2060 hc        1 MOL      0.033586
     18 H7         -1.2710    1.8120    4.2500 hc        1 MOL      0.033586
     19 N2          0.8170    3.9780    1.1030 n         1 MOL     -0.363108
     20 C7          1.0260    4.9790    0.1270 c3        1 MOL     -0.080974
     21 C8         -0.2600    5.5030   -0.5580 c         1 MOL      0.410663
     22 O5         -0.4440    6.6760   -0.6870 o         1 MOL     -0.536626
     23 C9          2.0750    4.4280   -0.9040 c3        1 MOL      0.104733
     24 C10         2.3030    5.4510   -2.0400 c3        1 MOL     -0.131605
     25 C11         3.4960    5.0920   -2.9240 c3        1 MOL      0.008720
     26 C12         3.8770    6.2850   -3.8440 c3        1 MOL     -0.034899
     27 N3          2.7810    6.5820   -4.8060 n4        1 MOL     -0.461579
     28 H8          0.6710    3.0230    0.8120 hn        1 MOL      0.151775
     29 H9          1.5270    5.7710    0.6810 h1        1 MOL      0.115907
     30 H10         1.6190    3.5960   -1.4370 hc        1 MOL      0.036052
     31 H11         2.9510    4.0800   -0.3580 hc        1 MOL      0.036052
     32 H12         2.5720    6.3820   -1.5420 hc        1 MOL      0.030928
     33 H13         1.4060    5.5840   -2.6390 hc        1 MOL      0.030928
     34 H14         3.3080    4.2290   -3.5650 hc        1 MOL      0.050652
     35 H15         4.3960    4.8780   -2.3470 hc        1 MOL      0.050652
     36 H16         4.8390    5.9860   -4.2770 hx        1 MOL      0.109848
     37 H17         4.0540    7.0950   -3.1300 hx        1 MOL      0.109848
     38 H18         2.7630    7.5180   -5.1810 hn        1 MOL      0.359402
     39 H19         2.7710    5.8930   -5.5500 hn        1 MOL      0.359402
     40 H20         1.9220    6.4790   -4.2850 hn        1 MOL      0.359402
     41 N4         -1.0990    4.4900   -0.8220 n         1 MOL     -0.112431
     42 C13        -2.4280    4.6210   -1.2650 c3        1 MOL      0.185360
     43 C14        -3.3410    3.7360   -0.4590 c         1 MOL      0.337659
     44 O6         -2.9520    2.5620   -0.1550 o         1 MOL     -0.497946
     45 C15        -2.6590    4.3310   -2.7210 c3        1 MOL     -0.350632
     46 C16        -2.4130    2.9540   -3.3150 c         1 MOL      0.773345
     47 O7         -2.4200    1.9310   -2.6160 o         1 MOL     -0.711355
     48 O8         -2.2150    2.7960   -4.5630 o         1 MOL     -0.711355
     49 H21        -0.7480    3.5490   -0.7680 hn        1 MOL      0.159578
     50 H22        -2.7980    5.6200   -1.0360 h1        1 MOL      0.016051
     51 H23        -2.0420    5.0090   -3.3180 hc        1 MOL      0.057027
     52 H24        -3.7000    4.5540   -2.9590 hc        1 MOL      0.057027
     53 N5         -4.5060    4.2580   -0.0910 n         1 MOL     -0.374334
     54 C17        -5.3510    3.5750    0.8490 c3        1 MOL      0.015436
     55 C18        -6.3730    2.5290    0.3660 c         1 MOL      0.415975
     56 O9         -7.5050    2.4970    0.8150 o         1 MOL     -0.524093
     57 H25        -4.8070    5.1690   -0.4070 hn        1 MOL      0.311600
     58 H26        -5.8370    4.3590    1.4310 h1        1 MOL      0.069661
     59 H27        -4.7330    3.0580    1.5770 h1        1 MOL      0.069661
     60 N6         -5.9730    1.7120   -0.5910 n         1 MOL     -0.265281
     61 C19        -6.7960    0.7780   -1.2300 c3        1 MOL      0.091650
     62 C20        -7.2570   -0.3670   -0.3410 c         1 MOL      0.363353
     63 O10        -8.2490   -1.0970   -0.6520 o         1 MOL     -0.533425
     64 C21        -6.1310    0.2500   -2.4980 c3        1 MOL     -0.413741
     65 C22        -4.9430   -0.7070   -2.2380 c         1 MOL      0.842736
     66 N7         -4.7360   -1.7710   -2.9590 n         1 MOL     -0.750689
     67 O11        -4.1840   -0.3960   -1.3270 o         1 MOL     -0.811834
     68 H28        -5.0360    1.8460   -0.9450 hn        1 MOL      0.255114
     69 H29        -7.6990    1.2890   -1.5690 h1        1 MOL      0.096392
     70 H30        -5.9550    1.1550   -3.0660 hc        1 MOL      0.136005
     71 H31        -6.8340   -0.3900   -3.0180 hc        1 MOL      0.136005
     72 H32        -5.4910   -2.1550   -3.5070 hn        1 MOL      0.358390
     73 H33        -3.8430   -2.2310   -2.8800 hn        1 MOL      0.358390
     74 N8         -6.4830   -0.7540    0.6850 n         1 MOL     -0.075643
     75 C23        -6.9200   -1.7120    1.7030 c3        1 MOL     -0.267325
     76 C24        -5.8060   -2.6350    2.2380 c         1 MOL      0.531791
     77 O12        -6.0380   -3.3790    3.1820 o         1 MOL     -0.547579
     78 H34        -5.7500   -0.1220    0.9780 hn        1 MOL      0.217867
     79 H35        -7.6930   -2.4090    1.3780 h1        1 MOL      0.144074
     80 H36        -7.3330   -1.0850    2.4890 h1        1 MOL      0.144074
     81 N9         -4.6670   -2.7450    1.5830 n         1 MOL     -0.389213
     82 C25        -3.4450   -3.4930    2.0170 c3        1 MOL      0.157442
     83 C26        -2.1450   -2.7710    1.5700 c         1 MOL      0.668018
     84 O13        -2.0790   -1.9800    0.6950 o         1 MOL     -0.649948
     85 C27        -3.5360   -4.9310    1.4310 c3        1 MOL     -0.296769
     86 C28        -3.5780   -5.0370   -0.0750 ca        1 MOL      0.189071
     87 C29        -2.3900   -4.9740   -0.7720 ca        1 MOL     -0.202472
     88 C30        -4.8230   -5.2670   -0.7060 ca        1 MOL     -0.202472
     89 C31        -2.4960   -5.2140   -2.1480 ca        1 MOL     -0.266596
     90 C32        -4.9260   -5.4620   -2.1200 ca        1 MOL     -0.266596
     91 C33        -3.7370   -5.4660   -2.8450 ca        1 MOL      0.313503
     92 O14        -3.7560   -5.6780   -4.1960 oh        1 MOL     -0.462323
     93 H37        -4.4330   -2.0590    0.8830 hn        1 MOL      0.210803
     94 H38        -3.3470   -3.5180    3.1080 h1        1 MOL      0.055935
     95 H39        -4.3980   -5.3570    1.9330 hc        1 MOL      0.100612
     96 H40        -2.7110   -5.5330    1.8100 hc        1 MOL      0.100612
     97 H41        -1.4470   -4.8940   -0.2470 ha        1 MOL      0.172823
     98 H42        -5.6940   -5.3280   -0.0740 ha        1 MOL      0.172823
     99 H43        -1.5770   -5.2880   -2.7110 ha        1 MOL      0.159451
    100 H44        -5.9070   -5.5940   -2.5460 ha        1 MOL      0.159451
    101 H45        -2.8500   -5.6300   -4.5270 ho        1 MOL      0.335979
    102 N10        -1.0490   -3.1030    2.2360 n         1 MOL     -0.652793
    103 C34         0.3090   -2.7180    2.0440 c3        1 MOL      0.395856
    104 C35         1.1010   -3.7720    1.2170 c         1 MOL      0.465859
    105 O15         0.7420   -4.9400    1.2570 o         1 MOL     -0.581647
    106 C36         0.9200   -2.4220    3.3980 c3        1 MOL     -0.184581
    107 C37         0.4420   -1.1170    4.0070 c3        1 MOL      0.246325
    108 C38         2.4380   -2.3730    3.3910 c3        1 MOL     -0.092724
    109 C39         0.8720   -0.9690    5.5000 c3        1 MOL     -0.158418
    110 H46        -1.1990   -3.8730    2.8710 hn        1 MOL      0.294598
    111 H47         0.3590   -1.8500    1.3900 h1        1 MOL     -0.028453
    112 H48         0.5450   -3.2410    4.0080 hc        1 MOL      0.038051
    113 H49        -0.6390   -1.0460    3.9210 hc        1 MOL     -0.020772
    114 H50         0.8920   -0.2680    3.4780 hc        1 MOL     -0.020772
    115 H51         2.8430   -2.5040    4.3900 hc        1 MOL      0.017092
    116 H52         2.9080   -3.1580    2.7930 hc        1 MOL      0.017092
    117 H53         2.8530   -1.4370    3.0250 hc        1 MOL      0.017092
    118 H54         0.5440   -1.8930    5.9750 hc        1 MOL      0.028190
    119 H55         1.9380   -0.8040    5.6240 hc        1 MOL      0.028190
    120 H56         0.3340   -0.1210    5.9280 hc        1 MOL      0.028190
    121 N11         2.1090   -3.4220    0.4850 n         1 MOL     -0.232069
    122 C40         3.1860   -4.2900   -0.0200 c3        1 MOL      0.103224
    123 C41         4.5760   -3.6180    0.0490 c         1 MOL      0.248699
    124 O16         4.6640   -2.4720    0.5120 o         1 MOL     -0.193650
    125 C42         2.9760   -4.7690   -1.4650 c3        1 MOL      0.272308
    126 O17         1.7530   -5.3880   -1.6920 oh        1 MOL     -0.577879
    127 H57         2.1880   -2.4260    0.3390 hn        1 MOL      0.172788
    128 H58         3.3240   -5.2120    0.5450 h1        1 MOL      0.074596
    129 H59         3.8160   -5.3690   -1.8120 h1        1 MOL     -0.013234
    130 H60         2.9360   -3.8360   -2.0270 h1        1 MOL     -0.013234
    131 H61         1.1790   -4.6220   -1.7190 ho        1 MOL      0.350077
    132 N12         5.6330   -4.3260   -0.3760 n         1 MOL     -0.525983
    133 C43         7.0660   -4.0030   -0.1750 c3        1 MOL      0.274202
    134 C44         7.4960   -2.6170   -0.7070 c         1 MOL      0.315118
    135 O18         8.1460   -1.8350   -0.1060 o         1 MOL     -0.435468
    136 C45         7.9030   -5.2120   -0.7570 c3        1 MOL     -0.504112
    137 H62         5.4330   -5.2770   -0.6640 hn        1 MOL      0.312656
    138 H63         7.2340   -3.9330    0.9020 h1        1 MOL      0.063976
    139 H64         7.5690   -5.4720   -1.7700 hc        1 MOL      0.153621
    140 H65         8.9600   -4.9550   -0.8030 hc        1 MOL      0.153621
    141 H66         7.8610   -6.0860   -0.1170 hc        1 MOL      0.153621
    142 N13         7.1720   -2.3340   -1.9690 n         1 MOL     -0.306467
    143 C46         7.3870   -0.9740   -2.5430 c3        1 MOL      0.175279
    144 C47         6.7050    0.1430   -1.6720 c         1 MOL      0.278805
    145 O19         7.3190    1.1300   -1.2950 o         1 MOL     -0.470459
    146 C48         6.9260   -0.9000   -4.0590 c3        1 MOL     -0.356137
    147 H67         6.7560   -3.0580   -2.5300 hn        1 MOL      0.207626
    148 H68         8.4360   -0.7000   -2.4670 h1        1 MOL      0.071953
    149 H69         7.6650   -1.4390   -4.6580 hc        1 MOL      0.103534
    150 H70         5.8920   -1.1870   -4.2000 hc        1 MOL      0.103534
    151 H71         6.9460    0.1410   -4.3840 hc        1 MOL      0.103534
    152 N14         5.4400   -0.0170   -1.2840 n         1 MOL     -0.062071
    153 C49         4.8510    0.9110   -0.3670 c3        1 MOL     -0.108961
    154 C50         5.4410    1.0480    1.0180 c         1 MOL      0.390962
    155 O20         5.5050    2.1830    1.5630 o         1 MOL     -0.525606
    156 C51         3.3310    0.6500   -0.2620 c3        1 MOL     -0.037245
    157 C52         2.7010    0.1390   -1.5690 c3        1 MOL     -0.324200
    158 C53         1.2440    0.1180   -1.3470 c         1 MOL      0.828054
    159 O21         0.7360   -0.8700   -0.8520 o         1 MOL     -0.763938
    160 O22         0.5420    1.1830   -1.5820 o         1 MOL     -0.763938
    161 H72         4.9190   -0.8030   -1.6540 hn        1 MOL      0.125677
    162 H73         4.9650    1.9060   -0.7960 h1        1 MOL      0.071428
    163 H74         2.8050    1.5830   -0.0240 hc        1 MOL      0.081284
    164 H75         3.1350   -0.0290    0.5780 hc        1 MOL      0.081284
    165 H76         3.0350   -0.8230   -1.9610 hc        1 MOL      0.052199
    166 H77         2.9510    0.7740   -2.4150 hc        1 MOL      0.052199
    167 N15         5.8700   -0.0510    1.5750 n         1 MOL      0.083149
    168 C54         6.6620   -0.1440    2.7400 c3        1 MOL     -0.215043
    169 H78         7.6860   -0.3970    2.4630 h1        1 MOL      0.082702
    170 H79         6.6530    0.8120    3.2640 h1        1 MOL      0.082702
    171 H80         6.2610   -0.9200    3.3920 h1        1 MOL      0.082702
    172 H81         5.5670   -0.9180    1.1380 hn        1 MOL     -0.028514
    173 Ca1        -1.7670    0.1860   -0.6790 Ca        1 MOL      1.821429
    174 O23        -1.5900   -0.6890   -3.2170 oh        1 MOL     -0.847632
    175 H82        -1.9690   -0.2590   -3.9830 ho        1 MOL      0.404470
    176 H83        -1.2410   -1.5120   -3.5510 ho        1 MOL      0.404470
@<TRIPOS>BOND
     1    1    2 1   
     2    1    4 1   
     3    1    5 1   
     4    1    6 1   
     5    2    3 2   
     6    2    7 1   
     7    7    8 1   
     8    7   15 1   
     9    8    9 1   
    10    8   11 1   
    11    8   16 1   
    12    9   10 2   
    13    9   19 1   
    14   11   12 1   
    15   11   17 1   
    16   11   18 1   
    17   12   13 1   
    18   12   14 1   
    19   19   20 1   
    20   19   28 1   
    21   20   21 1   
    22   20   23 1   
    23   20   29 1   
    24   21   22 2   
    25   21   41 1   
    26   23   24 1   
    27   23   30 1   
    28   23   31 1   
    29   24   25 1   
    30   24   32 1   
    31   24   33 1   
    32   25   26 1   
    33   25   34 1   
    34   25   35 1   
    35   26   27 1   
    36   26   36 1   
    37   26   37 1   
    38   27   38 1   
    39   27   39 1   
    40   27   40 1   
    41   41   42 1   
    42   41   49 1   
    43   42   43 1   
    44   42   45 1   
    45   42   50 1   
    46   43   44 2   
    47   43   53 1   
    48   45   46 1   
    49   45   51 1   
    50   45   52 1   
    51   46   47 1   
    52   46   48 1   
    53   53   54 1   
    54   53   57 1   
    55   54   55 1   
    56   54   58 1   
    57   54   59 1   
    58   55   56 2   
    59   55   60 1   
    60   60   61 1   
    61   60   68 1   
    62   61   62 1   
    63   61   64 1   
    64   61   69 1   
    65   62   63 2   
    66   62   74 1   
    67   64   65 1   
    68   64   70 1   
    69   64   71 1   
    70   65   66 1   
    71   65   67 2   
    72   66   72 1   
    73   66   73 1   
    74   74   75 1   
    75   74   78 1   
    76   75   76 1   
    77   75   79 1   
    78   75   80 1   
    79   76   77 2   
    80   76   81 1   
    81   81   82 1   
    82   81   93 1   
    83   82   83 1   
    84   82   85 1   
    85   82   94 1   
    86   83   84 2   
    87   83  102 1   
    88   85   86 1   
    89   85   95 1   
    90   85   96 1   
    91   86   87 ar  
    92   86   88 ar  
    93   87   89 ar  
    94   87   97 1   
    95   88   90 ar  
    96   88   98 1   
    97   89   91 ar  
    98   89   99 1   
    99   90   91 ar  
   100   90  100 1   
   101   91   92 1   
   102   92  101 1   
   103  102  103 1   
   104  102  110 1   
   105  103  104 1   
   106  103  106 1   
   107  103  111 1   
   108  104  105 2   
   109  104  121 1   
   110  106  107 1   
   111  106  108 1   
   112  106  112 1   
   113  107  109 1   
   114  107  113 1   
   115  107  114 1   
   116  108  115 1   
   117  108  116 1   
   118  108  117 1   
   119  109  118 1   
   120  109  119 1   
   121  109  120 1   
   122  121  122 1   
   123  121  127 1   
   124  122  123 1   
   125  122  125 1   
   126  122  128 1   
   127  123  124 2   
   128  123  132 1   
   129  125  126 1   
   130  125  129 1   
   131  125  130 1   
   132  126  131 1   
   133  132  133 1   
   134  132  137 1   
   135  133  134 1   
   136  133  136 1   
   137  133  138 1   
   138  134  135 2   
   139  134  142 1   
   140  136  139 1   
   141  136  140 1   
   142  136  141 1   
   143  142  143 1   
   144  142  147 1   
   145  143  144 1   
   146  143  146 1   
   147  143  148 1   
   148  144  145 2   
   149  144  152 1   
   150  146  149 1   
   151  146  150 1   
   152  146  151 1   
   153  152  153 1   
   154  152  161 1   
   155  153  154 1   
   156  153  156 1   
   157  153  162 1   
   158  154  155 2   
   159  154  167 1   
   160  156  157 1   
   161  156  163 1   
   162  156  164 1   
   163  157  158 1   
   164  157  165 1   
   165  157  166 1   
   166  158  159 1   
   167  158  160 1   
   168  167  168 1   
   169  167  172 1   
   170  168  169 1   
   171  168  170 1   
   172  168  171 1   
   173  174  175 1   
   174  174  176 1   
@<TRIPOS>SUBSTRUCTURE
     1 MOL         1 TEMP              0 ****  ****    0 ROOT
