@<TRIPOS>MOLECULE
MOL
  189   185     1     0     0
SMALL
resp


@<TRIPOS>ATOM
      1 C1          0.5550    2.1490    5.4490 c3        1 MOL     -0.287586
      2 C2         -0.0350    2.2420    4.0600 c         1 MOL      0.665635
      3 O1          0.6490    2.7220    3.1220 o         1 MOL     -0.692871
      4 H1          0.2700    1.1990    5.9010 hc        1 MOL      0.074644
      5 H2          1.6410    2.2100    5.3870 hc        1 MOL      0.074644
      6 H3          0.1780    2.9690    6.0600 hc        1 MOL      0.074644
      7 N1         -1.2010    1.6890    3.8280 n         1 MOL     -0.476803
      8 C3         -1.9890    1.6130    2.6110 c3        1 MOL      0.257446
      9 C4         -2.1840    3.0320    2.1230 c         1 MOL      0.282723
     10 O2         -3.2600    3.6520    2.4580 o         1 MOL     -0.515365
     11 C5         -3.2610    0.7600    2.7470 c3        1 MOL     -0.387380
     12 C6         -3.9670    0.4980    1.3960 c         1 MOL      0.843641
     13 O3         -3.3760    0.8600    0.3430 o         1 MOL     -0.676206
     14 O4         -5.1080    0.0070    1.3890 o         1 MOL     -0.676206
     15 H4         -1.7260    1.4320    4.6480 hn        1 MOL      0.283895
     16 H5         -1.4120    1.1540    1.8020 h1        1 MOL      0.010173
     17 H6         -3.9740    1.3190    3.3580 hc        1 MOL      0.098827
     18 H7         -3.0730   -0.1800    3.2640 hc        1 MOL      0.098827
     19 N2         -1.3820    3.5680    1.1930 n         1 MOL     -0.202025
     20 C7         -1.5860    4.9830    0.7860 c3        1 MOL      0.052822
     21 C8         -2.8290    5.0770   -0.0650 c         1 MOL      0.408391
     22 O5         -3.6330    6.0180   -0.0120 o         1 MOL     -0.575574
     23 C9         -0.3650    5.5330    0.0260 c3        1 MOL     -0.320673
     24 C10         0.7970    5.8790    0.9640 c3        1 MOL      0.061811
     25 C11         0.6800    7.2230    1.7460 c3        1 MOL     -0.359090
     26 C12         1.7930    7.4040    2.8050 c3        1 MOL      0.014078
     27 N3          1.6830    6.5920    4.0130 n4        1 MOL     -0.267485
     28 H8         -0.6220    3.0140    0.8300 hn        1 MOL      0.325896
     29 H9         -1.8040    5.5120    1.7080 h1        1 MOL      0.050811
     30 H10        -0.6860    6.4550   -0.4690 hc        1 MOL      0.114251
     31 H11        -0.0440    4.8210   -0.7300 hc        1 MOL      0.114251
     32 H12         1.7400    5.7950    0.4340 hc        1 MOL      0.061348
     33 H13         0.9980    5.1060    1.7020 hc        1 MOL      0.061348
     34 H14        -0.2800    7.3690    2.2460 hc        1 MOL      0.149761
     35 H15         0.7630    8.0260    1.0210 hc        1 MOL      0.149761
     36 H16         1.7750    8.4520    3.0860 hx        1 MOL      0.081200
     37 H17         2.7310    7.1130    2.3420 hx        1 MOL      0.081200
     38 H18         2.2570    7.0330    4.7170 hn        1 MOL      0.312936
     39 H19         0.6990    6.5440    4.2140 hn        1 MOL      0.312936
     40 H20         1.9150    5.6170    3.8890 hn        1 MOL      0.312936
     41 N4         -2.9970    4.1570   -0.9690 n         1 MOL     -0.121180
     42 C13        -4.0290    4.2390   -2.0620 c3        1 MOL     -0.080019
     43 C14        -5.3300    3.4050   -1.8290 c         1 MOL      0.461917
     44 O6         -6.2760    3.6180   -2.5540 o         1 MOL     -0.536525
     45 C15        -3.2670    3.9110   -3.3650 c3        1 MOL     -0.169721
     46 C16        -2.4630    2.6330   -3.4490 c         1 MOL      0.683907
     47 O7         -2.4120    1.8000   -2.5040 o         1 MOL     -0.628212
     48 O8         -1.6880    2.4730   -4.3910 o         1 MOL     -0.628212
     49 H21        -2.4460    3.3160   -0.9050 hn        1 MOL      0.141860
     50 H22        -4.3800    5.2590   -2.1950 h1        1 MOL      0.123774
     51 H23        -2.4900    4.6690   -3.5200 hc        1 MOL      0.048119
     52 H24        -3.8300    4.0750   -4.2850 hc        1 MOL      0.048119
     53 N5         -5.3830    2.6270   -0.7770 n         1 MOL     -0.176545
     54 C17        -6.7440    2.3850   -0.1480 c3        1 MOL     -0.238990
     55 C18        -7.4220    1.2160   -0.8190 c         1 MOL      0.514510
     56 O9         -8.6530    1.1190   -0.8450 o         1 MOL     -0.607016
     57 H25        -4.5500    2.4890   -0.2190 hn        1 MOL      0.225276
     58 H26        -7.3540    3.2850   -0.2340 h1        1 MOL      0.132978
     59 H27        -6.6520    2.1510    0.9170 h1        1 MOL      0.132978
     60 N6         -6.6990    0.2560   -1.2690 n         1 MOL      0.049083
     61 C19        -7.1390   -0.9240   -1.8920 c3        1 MOL     -0.182723
     62 C20        -7.4460   -2.0680   -0.8730 c         1 MOL      0.452577
     63 O10        -7.8940   -3.1400   -1.2630 o         1 MOL     -0.538377
     64 C21        -6.0930   -1.3860   -2.9840 c3        1 MOL     -0.133112
     65 C22        -4.6160   -1.2210   -2.4830 c         1 MOL      0.621913
     66 O11        -3.7320   -0.7950   -3.3160 o         1 MOL     -0.687590
     67 O12        -4.2050   -1.6580   -1.4160 o         1 MOL     -0.687590
     68 H28        -5.7790    0.2410   -0.8470 hn        1 MOL     -0.150197
     69 H29        -8.0020   -0.6720   -2.5120 h1        1 MOL      0.144002
     70 H30        -6.0630   -0.6830   -3.8200 hc        1 MOL      0.073666
     71 H31        -6.2540   -2.4050   -3.3390 hc        1 MOL      0.073666
     72 N7         -7.1230   -1.8960    0.3910 n         1 MOL     -0.231129
     73 C23        -7.1950   -2.9640    1.3670 c3        1 MOL     -0.163381
     74 C24        -5.9370   -3.8710    1.5610 c         1 MOL      0.534817
     75 O13        -5.9820   -4.8480    2.3540 o         1 MOL     -0.577987
     76 H32        -6.7380   -0.9880    0.5950 hn        1 MOL      0.296009
     77 H33        -8.0520   -3.6100    1.1660 h1        1 MOL      0.098623
     78 H34        -7.2840   -2.5030    2.3510 h1        1 MOL      0.098623
     79 N8         -4.8180   -3.5720    0.8680 n         1 MOL     -0.171135
     80 C25        -3.5090   -4.3810    0.7960 c3        1 MOL     -0.266055
     81 C26        -2.2580   -3.5080    0.9370 c         1 MOL      0.682175
     82 O14        -2.3150   -2.2960    0.7680 o         1 MOL     -0.655396
     83 C27        -3.4840   -5.1320   -0.5820 c3        1 MOL      0.483055
     84 C28        -4.4840   -6.2810   -0.6840 c3        1 MOL     -0.335634
     85 O15        -3.7580   -4.2910   -1.7200 oh        1 MOL     -0.677563
     86 H35        -4.7950   -2.6930    0.3520 hn        1 MOL      0.180467
     87 H36        -3.5140   -5.1330    1.5840 h1        1 MOL      0.116785
     88 H37        -2.4760   -5.5260   -0.7050 h1        1 MOL     -0.016941
     89 H38        -4.1070   -3.4790   -1.3620 ho        1 MOL      0.467637
     90 H39        -4.3240   -6.7610   -1.6500 hc        1 MOL      0.081741
     91 H40        -4.0960   -7.0570   -0.0310 hc        1 MOL      0.081741
     92 H41        -5.5090   -6.0290   -0.4070 hc        1 MOL      0.081741
     93 N9         -1.0800   -4.1000    1.2300 n         1 MOL     -0.555668
     94 C29         0.1860   -3.4210    1.4650 c3        1 MOL     -0.102629
     95 C30         1.2510   -4.0180    0.5480 c         1 MOL      0.395136
     96 O16         1.5140   -5.2700    0.5600 o         1 MOL     -0.536688
     97 C31         0.6140   -3.4260    2.9650 c3        1 MOL      0.220734
     98 C32        -0.5340   -3.2020    3.9030 c3        1 MOL      0.212612
     99 C33         1.7120   -2.3460    3.1010 c3        1 MOL     -0.584622
    100 C34        -0.1820   -3.0000    5.3260 c3        1 MOL     -0.253382
    101 H42        -1.1170   -5.0430    1.5900 hn        1 MOL      0.302446
    102 H43         0.1980   -2.3570    1.2100 h1        1 MOL      0.156292
    103 H44         1.1410   -4.3330    3.2510 hc        1 MOL     -0.003139
    104 H45        -1.1620   -4.0980    3.8490 hc        1 MOL     -0.031576
    105 H46        -1.2190   -2.4330    3.5530 hc        1 MOL     -0.031576
    106 H47         2.5660   -2.5660    2.4480 hc        1 MOL      0.107932
    107 H48         1.2570   -1.4140    2.7590 hc        1 MOL      0.107932
    108 H49         2.1250   -2.2640    4.1110 hc        1 MOL      0.107932
    109 H50         0.2770   -3.9050    5.7240 hc        1 MOL      0.057679
    110 H51         0.5080   -2.1580    5.4540 hc        1 MOL      0.057679
    111 H52        -1.1090   -2.8020    5.8500 hc        1 MOL      0.057679
    112 N10         2.0280   -3.1510   -0.1110 n         1 MOL     -0.100170
    113 C35         3.1920   -3.5070   -0.9210 c3        1 MOL      0.048171
    114 C36         4.5500   -3.2520   -0.1760 c         1 MOL      0.247519
    115 O17         4.5200   -2.6270    0.9120 o         1 MOL     -0.362424
    116 C37         3.2530   -2.6900   -2.2150 c3        1 MOL      0.182543
    117 C38         1.9590   -2.6710   -3.0000 c3        1 MOL     -0.540747
    118 O18         3.4840   -1.3860   -1.8380 oh        1 MOL     -0.390206
    119 H53         1.7240   -2.1890   -0.0310 hn        1 MOL      0.297937
    120 H54         3.1410   -4.5850   -1.1160 h1        1 MOL      0.058188
    121 H55         4.0960   -2.9780   -2.8390 h1        1 MOL     -0.005803
    122 H56         3.6330   -0.8280   -2.6040 ho        1 MOL      0.365851
    123 H57         1.7730   -3.6590   -3.4160 hc        1 MOL      0.138295
    124 H58         1.1670   -2.2370   -2.3870 hc        1 MOL      0.138295
    125 H59         2.1570   -2.0020   -3.8360 hc        1 MOL      0.138295
    126 N11         5.7300   -3.5740   -0.6180 n         1 MOL     -0.098569
    127 C39         7.0360   -3.2620   -0.0280 c3        1 MOL     -0.331330
    128 C40         7.3990   -1.7570    0.0190 c         1 MOL      0.478652
    129 O19         7.9580   -1.3490    1.0110 o         1 MOL     -0.477828
    130 C41         8.2030   -3.9460   -0.7830 c3        1 MOL      0.288333
    131 C42         8.1240   -5.4670   -0.7590 c3        1 MOL     -0.440177
    132 O20         8.3120   -3.5810   -2.1560 oh        1 MOL     -0.633672
    133 H60         5.6790   -4.2040   -1.4080 hn        1 MOL      0.218454
    134 H61         6.9850   -3.6680    0.9760 h1        1 MOL      0.182324
    135 H62         9.1450   -3.6060   -0.3730 h1        1 MOL      0.069393
    136 H63         9.0790   -4.0660   -2.4740 ho        1 MOL      0.413338
    137 H64         7.4030   -5.8440   -1.4840 hc        1 MOL      0.124665
    138 H65         9.0850   -5.9270   -1.0090 hc        1 MOL      0.124665
    139 H66         7.8690   -5.8430    0.2410 hc        1 MOL      0.124665
    140 N12         7.0740   -1.0500   -1.0530 n         1 MOL     -0.250989
    141 C43         7.3260    0.4210   -1.0860 c3        1 MOL     -0.072353
    142 C44         6.4440    1.1250   -0.0450 c         1 MOL      0.161146
    143 O21         6.8760    2.0590    0.6720 o         1 MOL     -0.494230
    144 C45         7.0910    0.9910   -2.5120 c3        1 MOL     -0.123556
    145 C46         7.3800    2.5150   -2.7030 c3        1 MOL      0.029476
    146 C47         7.2550    2.7740   -4.1820 c3        1 MOL      0.059115
    147 C48         7.1650    4.2650   -4.3960 c3        1 MOL     -0.020530
    148 N13         8.4620    4.9820   -4.0540 n4        1 MOL     -0.143248
    149 H67         6.7510   -1.4950   -1.8950 hn        1 MOL      0.223653
    150 H68         8.3300    0.6380   -0.7470 h1        1 MOL      0.128845
    151 H69         6.0800    0.6950   -2.7620 hc        1 MOL      0.048823
    152 H70         7.7370    0.4210   -3.1910 hc        1 MOL      0.048823
    153 H71         8.4070    2.6650   -2.3810 hc        1 MOL      0.025346
    154 H72         6.6690    3.1670   -2.1880 hc        1 MOL      0.025346
    155 H73         6.3760    2.2410   -4.5620 hc        1 MOL      0.019158
    156 H74         8.1620    2.5070   -4.7160 hc        1 MOL      0.019158
    157 H75         6.3960    4.6190   -3.6990 hx        1 MOL      0.080899
    158 H76         6.8590    4.5120   -5.4230 hx        1 MOL      0.080899
    159 H77         8.2410    5.9650   -4.1170 hn        1 MOL      0.220144
    160 H78         8.6160    4.8720   -3.0550 hn        1 MOL      0.220144
    161 H79         9.2690    4.7340   -4.6170 hn        1 MOL      0.220144
    162 N14         5.2760    0.5750    0.1580 n         1 MOL      0.285658
    163 C49         4.3850    1.0570    1.2330 c3        1 MOL     -0.257389
    164 C50         4.8320    0.7620    2.6910 c         1 MOL      0.519725
    165 O22         4.7450    1.6100    3.5610 o         1 MOL     -0.559819
    166 C51         2.9800    0.5440    1.0660 c3        1 MOL      0.089954
    167 C52         2.2960    1.0490   -0.1750 c3        1 MOL     -0.198886
    168 C53         0.8100    0.6830   -0.3610 c         1 MOL      0.863791
    169 O23         0.3350   -0.4450   -0.3670 o         1 MOL     -0.800904
    170 O24         0.0880    1.6800   -0.4710 o         1 MOL     -0.800904
    171 H80         4.8190    0.0670   -0.5890 hn        1 MOL      0.011444
    172 H81         4.3290    2.1370    1.1460 h1        1 MOL      0.070901
    173 H82         2.3940    0.8980    1.9090 hc        1 MOL      0.061685
    174 H83         3.1480   -0.5370    1.0340 hc        1 MOL      0.061685
    175 H84         2.8340    0.7910   -1.0790 hc        1 MOL     -0.003120
    176 H85         2.4020    2.1240   -0.0740 hc        1 MOL     -0.003120
    177 N15         5.3520   -0.4330    2.9010 n         1 MOL     -0.093752
    178 C54         6.0590   -0.6960    4.1810 c3        1 MOL     -0.509024
    179 H86         5.7130   -1.6420    4.5990 h1        1 MOL      0.168069
    180 H87         7.1320   -0.7510    4.0000 h1        1 MOL      0.168069
    181 H88         5.8500    0.1090    4.8850 h1        1 MOL      0.168069
    182 H89         5.3270   -1.1780    2.2140 hn        1 MOL      0.178020
    183 Ca1        -1.9170   -0.4630   -1.4000 Ca        1 MOL      1.749014
    184 O25        -0.5670   -0.7560   -4.0010 oh        1 MOL     -0.846785
    185 H90        -1.3220   -0.7310   -4.5780 ho        1 MOL      0.402665
    186 H91         0.1550   -1.0460   -4.5630 ho        1 MOL      0.402665
    187 O26        -1.2480   -2.9540   -2.1400 oh        1 MOL     -0.846785
    188 H92        -0.7060   -3.2250   -2.8800 ho        1 MOL      0.402665
    189 H93        -2.0270   -3.5030   -2.1960 ho        1 MOL      0.402665
@<TRIPOS>BOND
     1    1    2 1   
     2    1    4 1   
     3    1    5 1   
     4    1    6 1   
     5    2    3 2   
     6    2    7 1   
     7    7    8 1   
     8    7   15 1   
     9    8    9 1   
    10    8   11 1   
    11    8   16 1   
    12    9   10 2   
    13    9   19 1   
    14   11   12 1   
    15   11   17 1   
    16   11   18 1   
    17   12   13 1   
    18   12   14 1   
    19   19   20 1   
    20   19   28 1   
    21   20   21 1   
    22   20   23 1   
    23   20   29 1   
    24   21   22 2   
    25   21   41 1   
    26   23   24 1   
    27   23   30 1   
    28   23   31 1   
    29   24   25 1   
    30   24   32 1   
    31   24   33 1   
    32   25   26 1   
    33   25   34 1   
    34   25   35 1   
    35   26   27 1   
    36   26   36 1   
    37   26   37 1   
    38   27   38 1   
    39   27   39 1   
    40   27   40 1   
    41   41   42 1   
    42   41   49 1   
    43   42   43 1   
    44   42   45 1   
    45   42   50 1   
    46   43   44 2   
    47   43   53 1   
    48   45   46 1   
    49   45   51 1   
    50   45   52 1   
    51   46   47 1   
    52   46   48 1   
    53   53   54 1   
    54   53   57 1   
    55   54   55 1   
    56   54   58 1   
    57   54   59 1   
    58   55   56 2   
    59   55   60 1   
    60   60   61 1   
    61   60   68 1   
    62   61   62 1   
    63   61   64 1   
    64   61   69 1   
    65   62   63 2   
    66   62   72 1   
    67   64   65 1   
    68   64   70 1   
    69   64   71 1   
    70   65   66 1   
    71   65   67 1   
    72   72   73 1   
    73   72   76 1   
    74   73   74 1   
    75   73   77 1   
    76   73   78 1   
    77   74   75 2   
    78   74   79 1   
    79   79   80 1   
    80   79   86 1   
    81   80   81 1   
    82   80   83 1   
    83   80   87 1   
    84   81   82 2   
    85   81   93 1   
    86   83   84 1   
    87   83   85 1   
    88   83   88 1   
    89   84   90 1   
    90   84   91 1   
    91   84   92 1   
    92   85   89 1   
    93   93   94 1   
    94   93  101 1   
    95   94   95 1   
    96   94   97 1   
    97   94  102 1   
    98   95   96 2   
    99   95  112 1   
   100   97   98 1   
   101   97   99 1   
   102   97  103 1   
   103   98  100 1   
   104   98  104 1   
   105   98  105 1   
   106   99  106 1   
   107   99  107 1   
   108   99  108 1   
   109  100  109 1   
   110  100  110 1   
   111  100  111 1   
   112  112  113 1   
   113  112  119 1   
   114  113  114 1   
   115  113  116 1   
   116  113  120 1   
   117  114  115 2   
   118  114  126 1   
   119  116  117 1   
   120  116  118 1   
   121  116  121 1   
   122  117  123 1   
   123  117  124 1   
   124  117  125 1   
   125  118  122 1   
   126  126  127 1   
   127  126  133 1   
   128  127  128 1   
   129  127  130 1   
   130  127  134 1   
   131  128  129 2   
   132  128  140 1   
   133  130  131 1   
   134  130  132 1   
   135  130  135 1   
   136  131  137 1   
   137  131  138 1   
   138  131  139 1   
   139  132  136 1   
   140  140  141 1   
   141  140  149 1   
   142  141  142 1   
   143  141  144 1   
   144  141  150 1   
   145  142  143 2   
   146  142  162 1   
   147  144  145 1   
   148  144  151 1   
   149  144  152 1   
   150  145  146 1   
   151  145  153 1   
   152  145  154 1   
   153  146  147 1   
   154  146  155 1   
   155  146  156 1   
   156  147  148 1   
   157  147  157 1   
   158  147  158 1   
   159  148  159 1   
   160  148  160 1   
   161  148  161 1   
   162  162  163 1   
   163  162  171 1   
   164  163  164 1   
   165  163  166 1   
   166  163  172 1   
   167  164  165 2   
   168  164  177 1   
   169  166  167 1   
   170  166  173 1   
   171  166  174 1   
   172  167  168 1   
   173  167  175 1   
   174  167  176 1   
   175  168  169 1   
   176  168  170 1   
   177  177  178 1   
   178  177  182 1   
   179  178  179 1   
   180  178  180 1   
   181  178  181 1   
   182  184  185 1   
   183  184  186 1   
   184  187  188 1   
   185  187  189 1   
@<TRIPOS>SUBSTRUCTURE
     1 MOL         1 TEMP              0 ****  ****    0 ROOT
