@<TRIPOS>MOLECULE
MOL
  175   173     1     0     0
SMALL
resp


@<TRIPOS>ATOM
      1 C1         -0.3900   -3.3690    5.5340 c3        1 MOL     -0.398858
      2 C2          0.3130   -3.5780    4.1770 c         1 MOL      0.685943
      3 O1         -0.2940   -4.0780    3.2480 o         1 MOL     -0.524828
      4 H1         -1.4410   -3.1390    5.3670 hc        1 MOL      0.099945
      5 H2         -0.3080   -4.2780    6.1300 hc        1 MOL      0.099945
      6 H3          0.0820   -2.5430    6.0650 hc        1 MOL      0.099945
      7 N1          1.6000   -3.2260    4.0400 n         1 MOL     -0.599897
      8 C3          2.2540   -3.3120    2.7620 c3        1 MOL      0.165173
      9 C4          2.2920   -4.7000    2.0050 c         1 MOL      0.475750
     10 O2          2.5880   -5.7980    2.6020 o         1 MOL     -0.568718
     11 C5          3.7400   -2.8180    2.9500 c3        1 MOL     -0.285045
     12 C6          4.3140   -2.3660    1.6730 c         1 MOL      0.777357
     13 O3          3.6320   -2.0800    0.6660 o         1 MOL     -0.713269
     14 O4          5.5250   -2.0640    1.6530 o         1 MOL     -0.713269
     15 H4          2.1020   -2.8800    4.8450 hn        1 MOL      0.310159
     16 H5          1.7030   -2.6920    2.0510 h1        1 MOL      0.054458
     17 H6          4.3160   -3.6430    3.3930 hc        1 MOL      0.070193
     18 H7          3.9080   -1.9900    3.6370 hc        1 MOL      0.070193
     19 N2          2.1280   -4.5540    0.6520 n         1 MOL     -0.249596
     20 C7          2.2870   -5.6520   -0.3400 c3        1 MOL      0.063194
     21 C8          3.1000   -5.2230   -1.5520 c         1 MOL      0.486342
     22 O5          3.3050   -6.0150   -2.4840 o         1 MOL     -0.571393
     23 C9          0.8430   -5.9800   -0.7500 c3        1 MOL     -0.201853
     24 H8          1.7860   -3.6520    0.3640 hn        1 MOL      0.217253
     25 H9          2.6830   -6.5690    0.0850 h1        1 MOL      0.054634
     26 H10         0.7180   -6.6230   -1.6190 hc        1 MOL      0.059323
     27 H11         0.2720   -6.2610    0.1450 hc        1 MOL      0.059323
     28 H12         0.3000   -5.0920   -1.0530 hc        1 MOL      0.059323
     29 N3          3.6200   -3.9990   -1.6000 n         1 MOL     -0.261676
     30 C10         4.3480   -3.5010   -2.7610 c3        1 MOL     -0.028846
     31 C11         5.6630   -2.6870   -2.4880 c         1 MOL      0.411204
     32 O6          6.4220   -2.4090   -3.4420 o         1 MOL     -0.549551
     33 C12         3.4490   -2.6730   -3.6750 c3        1 MOL      0.084990
     34 C13         2.8240   -1.4460   -3.0390 c         1 MOL      0.689125
     35 O7          3.4210   -0.8280   -2.1980 o         1 MOL     -0.725677
     36 O8          1.8290   -0.9510   -3.5440 o         1 MOL     -0.725677
     37 H13         3.6880   -3.5930   -0.6790 hn        1 MOL      0.093921
     38 H14         4.6000   -4.3470   -3.3970 h1        1 MOL      0.080510
     39 H15         2.6650   -3.3230   -4.0880 hc        1 MOL     -0.020499
     40 H16         4.0610   -2.4050   -4.5220 hc        1 MOL     -0.020499
     41 N4          6.0140   -2.3950   -1.2350 n         1 MOL     -0.215319
     42 C14         7.2900   -1.7370   -0.8880 c3        1 MOL     -0.394174
     43 C15         7.3430   -0.2640   -1.1920 c         1 MOL      0.641220
     44 O9          8.3880    0.3600   -1.0380 o         1 MOL     -0.629716
     45 H17         5.2920   -2.4940   -0.5430 hn        1 MOL      0.249598
     46 H18         8.0410   -2.2780   -1.4670 h1        1 MOL      0.169358
     47 H19         7.4370   -1.8580    0.1880 h1        1 MOL      0.169358
     48 N5          6.2650    0.4120   -1.6350 n         1 MOL     -0.219600
     49 C16         6.2100    1.7700   -2.2340 c3        1 MOL      0.010721
     50 C17         6.2280    2.9390   -1.2540 c         1 MOL      0.376423
     51 O10         6.1600    4.1000   -1.6360 o         1 MOL     -0.499160
     52 C18         5.0150    1.9420   -3.1440 c3        1 MOL     -0.260391
     53 C19         3.6690    2.0980   -2.5220 c         1 MOL      0.799222
     54 N6          2.5820    2.2290   -3.2920 n         1 MOL     -0.750736
     55 O11         3.5000    1.9780   -1.2950 o         1 MOL     -0.683280
     56 H20         5.3680   -0.0440   -1.7480 hn        1 MOL      0.138222
     57 H21         7.0810    1.8020   -2.8870 h1        1 MOL      0.097171
     58 H22         4.9530    1.0930   -3.8270 hc        1 MOL      0.084654
     59 H23         5.1140    2.7890   -3.8160 hc        1 MOL      0.084654
     60 H24         2.6640    2.1480   -4.2980 hn        1 MOL      0.351690
     61 H25         1.6870    2.0250   -2.8850 hn        1 MOL      0.351690
     62 N7          6.2090    2.6220    0.0830 n         1 MOL     -0.140563
     63 C20         6.3380    3.6650    1.1370 c3        1 MOL     -0.323852
     64 C21         5.0750    4.4210    1.4810 c         1 MOL      0.656174
     65 O12         5.1890    5.2880    2.3120 o         1 MOL     -0.612936
     66 H26         6.1140    1.6560    0.3730 hn        1 MOL      0.182968
     67 H27         7.1700    4.2990    0.8130 h1        1 MOL      0.122461
     68 H28         6.5720    3.2070    2.0930 h1        1 MOL      0.122461
     69 N8          3.9520    4.0650    0.8880 n         1 MOL     -0.311222
     70 C22         2.6240    4.7450    1.1350 c3        1 MOL     -0.087119
     71 C23         1.5270    3.6430    1.2360 c         1 MOL      0.608509
     72 O13         1.6900    2.5820    0.6740 o         1 MOL     -0.546390
     73 C24         2.2250    5.8190    0.0380 c3        1 MOL      0.536225
     74 C25         3.0250    7.0960    0.1580 c3        1 MOL     -0.439541
     75 O14         2.4450    5.3980   -1.2730 oh        1 MOL     -0.576613
     76 H29         4.0060    3.2040    0.3560 hn        1 MOL      0.221251
     77 H30         2.6380    5.2490    2.1130 h1        1 MOL      0.046384
     78 H31         1.1940    6.0560    0.3010 h1        1 MOL     -0.071838
     79 H32         1.8200    4.6840   -1.4150 ho        1 MOL      0.345351
     80 H33         2.7600    7.7760   -0.6560 hc        1 MOL      0.103320
     81 H34         2.8530    7.5340    1.1480 hc        1 MOL      0.103320
     82 H35         4.0840    6.8870    0.2070 hc        1 MOL      0.103320
     83 N9          0.5210    3.8350    2.0320 n         1 MOL     -0.653603
     84 C26        -0.6690    2.9770    2.0860 c3        1 MOL      0.083112
     85 C27        -1.5230    3.2340    0.8020 c         1 MOL      0.522877
     86 O15        -1.7710    4.3770    0.3850 o         1 MOL     -0.573957
     87 C28        -1.5810    3.0700    3.3550 c3        1 MOL      0.182965
     88 C29        -0.6700    2.7570    4.5750 c3        1 MOL      0.174835
     89 C30        -2.8120    2.0990    3.3030 c3        1 MOL     -0.403951
     90 C31        -1.3580    2.6770    5.9140 c3        1 MOL     -0.225898
     91 H36         0.5820    4.6900    2.5530 hn        1 MOL      0.333171
     92 H37        -0.2560    1.9760    2.1440 h1        1 MOL      0.038853
     93 H38        -1.9040    4.1130    3.3530 hc        1 MOL     -0.030446
     94 H39         0.0380    3.5860    4.6150 hc        1 MOL     -0.048740
     95 H40        -0.1960    1.7860    4.4730 hc        1 MOL     -0.048740
     96 H41        -2.4770    1.0590    3.2320 hc        1 MOL      0.079343
     97 H42        -3.4580    2.1800    4.1770 hc        1 MOL      0.079343
     98 H43        -3.3390    2.2720    2.3620 hc        1 MOL      0.079343
     99 H44        -2.2390    3.3210    5.9580 hc        1 MOL      0.047584
    100 H45        -1.7050    1.6440    6.0270 hc        1 MOL      0.047584
    101 H46        -0.7540    3.0130    6.7580 hc        1 MOL      0.047584
    102 N10        -1.8880    2.1170    0.1930 n         1 MOL     -0.161030
    103 C32        -2.6600    1.9460   -1.0290 c3        1 MOL      0.022533
    104 C33        -4.1310    1.5770   -0.6970 c         1 MOL      0.372956
    105 O16        -4.3560    0.9260    0.2620 o         1 MOL     -0.234748
    106 C34        -1.9010    1.0160   -2.0040 c3        1 MOL     -0.444344
    107 C35        -0.5550    1.5020   -2.2740 c         1 MOL      0.891810
    108 O17         0.3690    1.1080   -1.5720 o         1 MOL     -0.710298
    109 O18        -0.4630    2.2800   -3.2580 o         1 MOL     -0.710298
    110 H47        -1.4680    1.2440    0.4750 hn        1 MOL      0.152272
    111 H48        -2.7210    2.9390   -1.4730 h1        1 MOL      0.059385
    112 H49        -2.3800    1.1190   -2.9720 hc        1 MOL      0.113601
    113 H50        -1.9440   -0.0510   -1.7620 hc        1 MOL      0.113601
    114 N11        -5.0940    1.8490   -1.5960 n         1 MOL     -0.577496
    115 C36        -6.5020    1.5250   -1.3310 c3        1 MOL      0.289035
    116 C37        -6.7100    0.0500   -0.9740 c         1 MOL      0.345709
    117 O19        -7.3570   -0.2950   -0.0110 o         1 MOL     -0.506384
    118 C38        -7.5060    2.0540   -2.3920 c3        1 MOL     -0.267440
    119 C39        -8.9640    1.6690   -2.0970 ca        1 MOL      0.185118
    120 C40        -9.7560    2.4460   -1.2630 ca        1 MOL     -0.235769
    121 C41        -9.5680    0.5870   -2.6670 ca        1 MOL     -0.235769
    122 C42       -11.0910    2.0250   -0.8570 ca        1 MOL     -0.040198
    123 C43       -10.9810    0.2630   -2.5460 ca        1 MOL     -0.040198
    124 C44       -11.7280    1.0290   -1.5980 ca        1 MOL     -0.181410
    125 H51        -4.9160    2.4730   -2.3680 hn        1 MOL      0.336127
    126 H52        -6.8620    2.0630   -0.4420 h1        1 MOL      0.032580
    127 H53        -7.2260    1.6340   -3.3530 hc        1 MOL      0.087598
    128 H54        -7.4130    3.1360   -2.4760 hc        1 MOL      0.087598
    129 H55        -9.2700    3.2780   -0.7910 ha        1 MOL      0.120828
    130 H56        -9.0270    0.0070   -3.4040 ha        1 MOL      0.120828
    131 H57       -11.6860    2.6560   -0.2220 ha        1 MOL      0.099517
    132 H58       -11.3850   -0.5680   -3.0990 ha        1 MOL      0.099517
    133 H59       -12.7710    0.8480   -1.3980 ha        1 MOL      0.116684
    134 N12        -6.2040   -0.9090   -1.7960 n         1 MOL      0.016843
    135 C45        -6.4550   -2.3550   -1.4910 c3        1 MOL     -0.118014
    136 C46        -5.7450   -2.8320   -0.2020 c         1 MOL      0.358124
    137 O20        -5.9090   -3.9530    0.2990 o         1 MOL     -0.518263
    138 C47        -5.9620   -3.0950   -2.6910 c3        1 MOL     -0.124712
    139 C48        -4.9310   -2.1960   -3.2980 c3        1 MOL      0.146053
    140 C49        -5.2700   -0.7930   -2.9160 c3        1 MOL     -0.128329
    141 H60        -7.5250   -2.5180   -1.3890 h1        1 MOL      0.105357
    142 H61        -5.4070   -3.9660   -2.3350 hc        1 MOL      0.057366
    143 H62        -6.7850   -3.3360   -3.3610 hc        1 MOL      0.057366
    144 H63        -3.9560   -2.4610   -2.8850 hc        1 MOL     -0.006475
    145 H64        -4.9660   -2.4150   -4.3690 hc        1 MOL     -0.006475
    146 H65        -4.3820   -0.2700   -2.5940 h1        1 MOL      0.025009
    147 H66        -5.8460   -0.3170   -3.7200 h1        1 MOL      0.025009
    148 N13        -4.8130   -2.0340    0.3430 n         1 MOL     -0.125179
    149 C50        -4.1250   -2.1220    1.5900 c3        1 MOL     -0.090571
    150 C51        -4.8240   -1.4210    2.7530 c         1 MOL      0.501864
    151 O21        -4.7810   -1.9430    3.8510 o         1 MOL     -0.568540
    152 C52        -2.7010   -1.5280    1.5410 c3        1 MOL     -0.097389
    153 C53        -1.7820   -2.2280    0.5230 c3        1 MOL     -0.199430
    154 C54        -0.3360   -1.6370    0.4770 c         1 MOL      0.653840
    155 O22         0.6530   -2.2160   -0.1080 o         1 MOL     -0.732378
    156 O23        -0.1320   -0.5250    0.9740 o         1 MOL     -0.732378
    157 H67        -4.5880   -1.2710   -0.2800 hn        1 MOL      0.251219
    158 H68        -4.0150   -3.1760    1.8360 h1        1 MOL      0.103138
    159 H69        -2.3240   -1.6790    2.5560 hc        1 MOL      0.083799
    160 H70        -2.7380   -0.4730    1.2990 hc        1 MOL      0.083799
    161 H71        -2.2010   -2.0700   -0.4760 hc        1 MOL      0.083187
    162 H72        -1.7460   -3.3010    0.7250 hc        1 MOL      0.083187
    163 N14        -5.5340   -0.3340    2.4560 n         1 MOL     -0.148806
    164 C55        -6.5060    0.3290    3.3390 c3        1 MOL     -0.169594
    165 H73        -7.4600    0.4270    2.8190 h1        1 MOL      0.070513
    166 H74        -6.6440   -0.2680    4.2410 h1        1 MOL      0.070513
    167 H75        -6.1380    1.3170    3.6090 h1        1 MOL      0.070513
    168 H76        -5.3810    0.2010    1.6120 hn        1 MOL      0.093821
    169 Ca1         2.1990    0.0120   -0.1030 Ca        1 MOL      1.795672
    170 O24         1.8600   -0.1600    2.8020 oh        1 MOL     -0.805178
    171 H77         1.9220   -0.3520    3.7450 ho        1 MOL      0.396298
    172 H78         1.0070   -0.5040    2.5440 ho        1 MOL      0.396298
    173 O25         4.6670    0.6510    1.6680 oh        1 MOL     -0.805178
    174 H79         4.8270   -0.2930    1.6400 ho        1 MOL      0.396298
    175 H80         5.2120    0.9740    2.3870 ho        1 MOL      0.396298
@<TRIPOS>BOND
     1    1    2 1   
     2    1    4 1   
     3    1    5 1   
     4    1    6 1   
     5    2    3 2   
     6    2    7 1   
     7    7    8 1   
     8    7   15 1   
     9    8    9 1   
    10    8   11 1   
    11    8   16 1   
    12    9   10 2   
    13    9   19 1   
    14   11   12 1   
    15   11   17 1   
    16   11   18 1   
    17   12   13 1   
    18   12   14 1   
    19   19   20 1   
    20   19   24 1   
    21   20   21 1   
    22   20   23 1   
    23   20   25 1   
    24   21   22 2   
    25   21   29 1   
    26   23   26 1   
    27   23   27 1   
    28   23   28 1   
    29   29   30 1   
    30   29   37 1   
    31   30   31 1   
    32   30   33 1   
    33   30   38 1   
    34   31   32 2   
    35   31   41 1   
    36   33   34 1   
    37   33   39 1   
    38   33   40 1   
    39   34   35 1   
    40   34   36 1   
    41   41   42 1   
    42   41   45 1   
    43   42   43 1   
    44   42   46 1   
    45   42   47 1   
    46   43   44 2   
    47   43   48 1   
    48   48   49 1   
    49   48   56 1   
    50   49   50 1   
    51   49   52 1   
    52   49   57 1   
    53   50   51 2   
    54   50   62 1   
    55   52   53 1   
    56   52   58 1   
    57   52   59 1   
    58   53   54 1   
    59   53   55 2   
    60   54   60 1   
    61   54   61 1   
    62   62   63 1   
    63   62   66 1   
    64   63   64 1   
    65   63   67 1   
    66   63   68 1   
    67   64   65 2   
    68   64   69 1   
    69   69   70 1   
    70   69   76 1   
    71   70   71 1   
    72   70   73 1   
    73   70   77 1   
    74   71   72 2   
    75   71   83 1   
    76   73   74 1   
    77   73   75 1   
    78   73   78 1   
    79   74   80 1   
    80   74   81 1   
    81   74   82 1   
    82   75   79 1   
    83   83   84 1   
    84   83   91 1   
    85   84   85 1   
    86   84   87 1   
    87   84   92 1   
    88   85   86 2   
    89   85  102 1   
    90   87   88 1   
    91   87   89 1   
    92   87   93 1   
    93   88   90 1   
    94   88   94 1   
    95   88   95 1   
    96   89   96 1   
    97   89   97 1   
    98   89   98 1   
    99   90   99 1   
   100   90  100 1   
   101   90  101 1   
   102  102  103 1   
   103  102  110 1   
   104  103  104 1   
   105  103  106 1   
   106  103  111 1   
   107  104  105 2   
   108  104  114 1   
   109  106  107 1   
   110  106  112 1   
   111  106  113 1   
   112  107  108 1   
   113  107  109 1   
   114  114  115 1   
   115  114  125 1   
   116  115  116 1   
   117  115  118 1   
   118  115  126 1   
   119  116  117 2   
   120  116  134 1   
   121  118  119 1   
   122  118  127 1   
   123  118  128 1   
   124  119  120 ar  
   125  119  121 ar  
   126  120  122 ar  
   127  120  129 1   
   128  121  123 ar  
   129  121  130 1   
   130  122  124 ar  
   131  122  131 1   
   132  123  124 ar  
   133  123  132 1   
   134  124  133 1   
   135  134  135 1   
   136  134  140 1   
   137  135  136 1   
   138  135  138 1   
   139  135  141 1   
   140  136  137 2   
   141  136  148 1   
   142  138  139 1   
   143  138  142 1   
   144  138  143 1   
   145  139  140 1   
   146  139  144 1   
   147  139  145 1   
   148  140  146 1   
   149  140  147 1   
   150  148  149 1   
   151  148  157 1   
   152  149  150 1   
   153  149  152 1   
   154  149  158 1   
   155  150  151 2   
   156  150  163 1   
   157  152  153 1   
   158  152  159 1   
   159  152  160 1   
   160  153  154 1   
   161  153  161 1   
   162  153  162 1   
   163  154  155 1   
   164  154  156 1   
   165  163  164 1   
   166  163  168 1   
   167  164  165 1   
   168  164  166 1   
   169  164  167 1   
   170  170  171 1   
   171  170  172 1   
   172  173  174 1   
   173  173  175 1   
@<TRIPOS>SUBSTRUCTURE
     1 MOL         1 TEMP              0 ****  ****    0 ROOT
