@<TRIPOS>MOLECULE
MOL
  179   176     1     0     0
SMALL
resp


@<TRIPOS>ATOM
      1 C1          1.8410    4.1440    3.5950 c3        1 MOL     -0.388512
      2 C2          0.9300    3.5890    2.4500 c         1 MOL      0.656288
      3 O1          1.3200    3.5680    1.2860 o         1 MOL     -0.555137
      4 H1          2.5200    4.8930    3.1860 hc        1 MOL      0.096416
      5 H2          1.2200    4.6010    4.3650 hc        1 MOL      0.096416
      6 H3          2.4170    3.3280    4.0290 hc        1 MOL      0.096416
      7 N1         -0.2130    3.0860    2.8970 n         1 MOL     -0.606320
      8 C3         -1.1910    2.4410    1.9850 c3        1 MOL      0.279470
      9 C4         -1.9070    3.5630    1.1270 c         1 MOL      0.362926
     10 O2         -3.1410    3.7170    1.2860 o         1 MOL     -0.466314
     11 C5         -2.1230    1.4950    2.7590 c3        1 MOL      0.075487
     12 C6         -3.1350    0.8240    1.8300 c         1 MOL      0.526025
     13 O3         -4.3240    0.6680    2.1300 o         1 MOL     -0.671139
     14 O4         -2.7500    0.6180    0.6680 o         1 MOL     -0.671139
     15 H4         -0.4310    3.1630    3.8780 hn        1 MOL      0.334859
     16 H5         -0.6470    1.8220    1.2770 h1        1 MOL     -0.039818
     17 H6         -2.5890    2.1310    3.5080 hc        1 MOL     -0.022547
     18 H7         -1.3870    0.8790    3.2880 hc        1 MOL     -0.022547
     19 N2         -1.2860    4.4000    0.3250 n         1 MOL     -0.294791
     20 C7         -1.8320    5.6450   -0.2010 c3        1 MOL     -0.176915
     21 C8         -3.0800    5.5920   -1.0240 c         1 MOL      0.490045
     22 O5         -3.7810    6.5900   -1.2070 o         1 MOL     -0.563329
     23 C9         -0.7420    6.5190   -0.8280 c3        1 MOL     -0.144284
     24 C10         0.3730    7.0290    0.1000 c3        1 MOL      0.018466
     25 C11         1.4490    7.7180   -0.6330 c3        1 MOL     -0.103209
     26 C12         2.6740    8.0100    0.2250 c3        1 MOL      0.005479
     27 N3          2.3620    8.9850    1.3200 n4        1 MOL     -0.427085
     28 H8         -0.2890    4.3000    0.1840 hn        1 MOL      0.330868
     29 H9         -2.1180    6.1060    0.7380 h1        1 MOL      0.123687
     30 H10        -1.1630    7.3650   -1.3670 hc        1 MOL      0.084339
     31 H11        -0.2980    5.9190   -1.6240 hc        1 MOL      0.084339
     32 H12         0.8650    6.1570    0.5440 hc        1 MOL      0.010216
     33 H13        -0.0270    7.5220    0.9890 hc        1 MOL      0.010216
     34 H14         1.1730    8.6350   -1.1510 hc        1 MOL      0.075860
     35 H15         1.9030    7.1530   -1.4490 hc        1 MOL      0.075860
     36 H16         3.5260    8.2440   -0.4140 hx        1 MOL      0.116414
     37 H17         2.9320    7.1140    0.7860 hx        1 MOL      0.116414
     38 H18         1.6880    8.6870    1.9990 hn        1 MOL      0.341046
     39 H19         3.2310    9.1830    1.8040 hn        1 MOL      0.341046
     40 H20         1.9360    9.8120    0.9250 hn        1 MOL      0.341046
     41 N4         -3.4070    4.3700   -1.4030 n         1 MOL     -0.248123
     42 C13        -4.4850    4.0090   -2.2310 c3        1 MOL      0.089594
     43 C14        -5.6020    3.3480   -1.3840 c         1 MOL      0.436522
     44 O6         -6.6800    3.2180   -1.9880 o         1 MOL     -0.542091
     45 C15        -4.0010    3.0520   -3.2970 c3        1 MOL     -0.225979
     46 C16        -3.2120    1.8370   -2.8970 c         1 MOL      0.920984
     47 O7         -2.1750    1.9990   -2.2640 o         1 MOL     -0.801104
     48 O8         -3.7040    0.7060   -3.2400 o         1 MOL     -0.801104
     49 H21        -2.8110    3.6050   -1.1020 hn        1 MOL      0.249327
     50 H22        -4.9020    4.8770   -2.7400 h1        1 MOL      0.080193
     51 H23        -3.2890    3.6310   -3.8880 hc        1 MOL      0.039097
     52 H24        -4.8020    2.7100   -3.9450 hc        1 MOL      0.039097
     53 N5         -5.3960    2.9430   -0.1180 n         1 MOL     -0.168976
     54 C17        -6.3790    2.3230    0.7830 c3        1 MOL     -0.309646
     55 C18        -6.8540    0.8700    0.5360 c         1 MOL      0.630184
     56 O9         -7.8640    0.4410    1.0390 o         1 MOL     -0.597250
     57 H25        -4.4400    2.7650    0.1700 hn        1 MOL      0.123435
     58 H26        -7.2400    2.9920    0.7900 h1        1 MOL      0.148201
     59 H27        -5.9690    2.3030    1.7880 h1        1 MOL      0.148201
     60 N6         -6.1250    0.0640   -0.2600 n         1 MOL     -0.247702
     61 C19        -6.5950   -1.2360   -0.6420 c3        1 MOL     -0.030315
     62 C20        -6.3830   -2.2940    0.4570 c         1 MOL      0.379048
     63 O10        -6.8420   -3.4650    0.2780 o         1 MOL     -0.514942
     64 C21        -6.0640   -1.5720   -2.0480 c3        1 MOL     -0.348079
     65 C22        -4.6870   -2.1170   -2.0690 c         1 MOL      0.668093
     66 N7         -4.2860   -2.9110   -2.9710 n         1 MOL     -0.502589
     67 O11        -3.8560   -1.7360   -1.2570 o         1 MOL     -0.610586
     68 H28        -5.2130    0.4020   -0.5500 hn        1 MOL      0.165036
     69 H29        -7.6540   -1.1670   -0.8860 h1        1 MOL      0.134306
     70 H30        -6.1130   -0.6750   -2.6670 hc        1 MOL      0.126750
     71 H31        -6.7540   -2.3040   -2.4550 hc        1 MOL      0.126750
     72 H32        -4.8000   -3.0320   -3.8370 hn        1 MOL      0.268803
     73 H33        -3.3320   -3.2470   -2.9200 hn        1 MOL      0.268803
     74 N8         -5.8890   -1.8810    1.6490 n         1 MOL     -0.187285
     75 C23        -5.8550   -2.5750    2.9050 c3        1 MOL     -0.131130
     76 C24        -4.4640   -3.2030    3.2840 c         1 MOL      0.482253
     77 O12        -4.3440   -3.6670    4.4170 o         1 MOL     -0.557623
     78 H34        -5.5270   -0.9330    1.6190 hn        1 MOL      0.297083
     79 H35        -6.5020   -3.4500    2.8480 h1        1 MOL      0.096675
     80 H36        -6.2000   -1.9220    3.7010 h1        1 MOL      0.096675
     81 N9         -3.5350   -3.1090    2.3500 n         1 MOL     -0.308590
     82 C25        -2.2540   -3.8180    2.5250 c3        1 MOL      0.063152
     83 C26        -1.1150   -3.0640    1.7670 c         1 MOL      0.674655
     84 O13        -1.3660   -2.2180    0.9140 o         1 MOL     -0.561289
     85 C27        -2.4400   -5.2870    2.0080 c3        1 MOL     -0.275907
     86 C28        -2.5760   -5.3980    0.4920 ca        1 MOL      0.119350
     87 C29        -3.7790   -5.4970   -0.1170 ca        1 MOL     -0.149747
     88 C30        -1.4470   -5.3440   -0.3630 ca        1 MOL     -0.149747
     89 C31        -3.9630   -5.7600   -1.5040 ca        1 MOL     -0.291981
     90 C32        -1.5560   -5.6770   -1.7440 ca        1 MOL     -0.291981
     91 C33        -2.8290   -5.8180   -2.3620 ca        1 MOL      0.363655
     92 O14        -2.9880   -6.0940   -3.7020 oh        1 MOL     -0.471569
     93 H37        -3.7730   -2.6060    1.5080 hn        1 MOL      0.263508
     94 H38        -2.0710   -3.7820    3.6030 h1        1 MOL      0.081949
     95 H39        -3.2260   -5.8280    2.5370 hc        1 MOL      0.106799
     96 H40        -1.6400   -5.9020    2.3990 hc        1 MOL      0.106799
     97 H41        -4.6650   -5.5550    0.5110 ha        1 MOL      0.150000
     98 H42        -0.4980   -5.0330    0.0480 ha        1 MOL      0.150000
     99 H43        -4.9120   -6.0360   -1.9440 ha        1 MOL      0.142068
    100 H44        -0.6860   -5.7660   -2.3870 ha        1 MOL      0.142068
    101 H45        -2.1940   -5.8480   -4.1780 ho        1 MOL      0.332223
    102 N10         0.1810   -3.3900    2.1170 n         1 MOL     -0.791125
    103 C34         1.3330   -2.7110    1.5880 c3        1 MOL      0.156616
    104 C35         2.4920   -3.6550    1.0530 c         1 MOL      0.422766
    105 O15         2.5830   -4.7820    1.4760 o         1 MOL     -0.518872
    106 C36         1.9260   -1.7470    2.6870 c3        1 MOL      0.070698
    107 C37         2.2500   -2.4960    4.0160 c3        1 MOL      0.150447
    108 C38         0.9970   -0.5270    2.8170 c3        1 MOL     -0.332022
    109 C39         3.2310   -1.5570    4.7320 c3        1 MOL     -0.214780
    110 H46         0.3350   -4.1530    2.7660 hn        1 MOL      0.372586
    111 H47         1.0120   -2.1760    0.6930 h1        1 MOL      0.051423
    112 H48         2.8870   -1.3980    2.3300 hc        1 MOL     -0.010425
    113 H49         2.7540   -3.4620    3.9110 hc        1 MOL     -0.004271
    114 H50         1.3270   -2.8000    4.5060 hc        1 MOL     -0.004271
    115 H51         0.0140   -0.8740    3.1560 hc        1 MOL      0.098983
    116 H52         1.3580    0.2130    3.5390 hc        1 MOL      0.098983
    117 H53         0.7840   -0.0370    1.8690 hc        1 MOL      0.098983
    118 H54         2.7410   -0.6020    4.9510 hc        1 MOL      0.043313
    119 H55         3.3910   -1.9810    5.7240 hc        1 MOL      0.043313
    120 H56         4.1830   -1.5100    4.2000 hc        1 MOL      0.043313
    121 N11         3.3640   -3.0800    0.1470 n         1 MOL     -0.297899
    122 C40         4.6320   -3.7050   -0.3380 c3        1 MOL      0.189161
    123 C41         5.8000   -2.8620    0.1100 c         1 MOL      0.326797
    124 O16         5.6600   -1.7560    0.5970 o         1 MOL     -0.369701
    125 C42         4.4700   -3.9360   -1.8330 c3        1 MOL     -0.055717
    126 O17         4.6310   -2.6400   -2.4580 oh        1 MOL     -0.484399
    127 H57         3.2000   -2.1210   -0.1290 hn        1 MOL      0.161127
    128 H58         4.8840   -4.7120    0.0060 h1        1 MOL      0.035055
    129 H59         3.5470   -4.4310   -2.0940 h1        1 MOL      0.068213
    130 H60         5.2870   -4.5290   -2.2500 h1        1 MOL      0.068213
    131 H61         4.6410   -2.8590   -3.3950 ho        1 MOL      0.375261
    132 N12         7.0410   -3.3390   -0.0080 n         1 MOL     -0.329773
    133 C43         8.3120   -2.6830    0.1890 c3        1 MOL      0.064449
    134 C44         8.4050   -1.3660   -0.5820 c         1 MOL      0.408331
    135 O18         9.0160   -0.4170   -0.0770 o         1 MOL     -0.531486
    136 C45         9.3920   -3.6450   -0.1810 c3        1 MOL     -0.286121
    137 H62         7.1470   -4.2700   -0.3760 hn        1 MOL      0.254061
    138 H63         8.3280   -2.5170    1.2640 h1        1 MOL      0.112677
    139 H64        10.3150   -3.0790   -0.1850 hc        1 MOL      0.090099
    140 H65         9.3350   -4.5370    0.4530 hc        1 MOL      0.090099
    141 H66         9.2700   -4.0100   -1.1930 hc        1 MOL      0.090099
    142 N13         7.8090   -1.2210   -1.7200 n         1 MOL     -0.089119
    143 C46         7.9060   -0.0870   -2.5110 c3        1 MOL     -0.039507
    144 C47         7.2310    1.1150   -1.8000 c         1 MOL      0.372998
    145 O19         7.6730    2.2450   -1.8750 o         1 MOL     -0.502430
    146 C48         7.3920   -0.2990   -3.9670 c3        1 MOL     -0.243507
    147 H67         7.3870   -2.0750   -2.0460 hn        1 MOL      0.140890
    148 H68         8.9860    0.0470   -2.6330 h1        1 MOL      0.102296
    149 H69         7.3720    0.6080   -4.5630 hc        1 MOL      0.076856
    150 H70         8.0990   -0.9380   -4.4860 hc        1 MOL      0.076856
    151 H71         6.4080   -0.7680   -3.9710 hc        1 MOL      0.076856
    152 N14         6.0960    0.8490   -1.1390 n         1 MOL      0.024851
    153 C49         5.2460    1.8430   -0.4690 c3        1 MOL     -0.334218
    154 C50         5.9620    2.2470    0.8770 c         1 MOL      0.583317
    155 O20         5.9970    3.4300    1.1880 o         1 MOL     -0.580592
    156 C51         3.7990    1.3070   -0.2160 c3        1 MOL      0.252057
    157 C52         3.0940    0.5990   -1.3820 c3        1 MOL      0.094442
    158 C53         1.5560    0.3200   -1.2080 c         1 MOL      0.773452
    159 O21         1.1090   -0.8550   -1.3680 o         1 MOL     -0.775772
    160 O22         0.7390    1.2810   -0.9800 o         1 MOL     -0.775772
    161 H72         5.9710   -0.1220   -0.8870 hn        1 MOL      0.049726
    162 H73         5.1420    2.7480   -1.0680 h1        1 MOL      0.144224
    163 H74         3.1730    2.0920    0.2120 hc        1 MOL     -0.047023
    164 H75         3.8570    0.6110    0.6250 hc        1 MOL     -0.047023
    165 H76         3.6630   -0.3080   -1.6020 hc        1 MOL     -0.088233
    166 H77         3.2330    1.2020   -2.2840 hc        1 MOL     -0.088233
    167 N15         6.4440    1.2700    1.6270 n         1 MOL     -0.157240
    168 C54         7.2330    1.5430    2.7810 c3        1 MOL     -0.278540
    169 H78         7.9040    2.3770    2.5720 h1        1 MOL      0.107647
    170 H79         6.5810    1.8020    3.6150 h1        1 MOL      0.107647
    171 H80         7.8200    0.6610    3.0380 h1        1 MOL      0.107647
    172 H81         6.2500    0.3230    1.3650 hn        1 MOL      0.178990
    173 Ca1        -1.4560   -0.2680   -1.3910 Ca        1 MOL      1.722883
    174 O23        -0.1480    0.0740   -3.7700 oh        1 MOL     -0.793208
    175 H82        -0.3780    0.4860   -4.6060 ho        1 MOL      0.390807
    176 H83         0.7020   -0.3270   -3.9280 ho        1 MOL      0.390807
    177 O24        -1.2550   -2.6850   -2.8070 oh        1 MOL     -0.793208
    178 H84        -0.7740   -2.6360   -3.6280 ho        1 MOL      0.390807
    179 H85        -0.7020   -3.2200   -2.2330 ho        1 MOL      0.390807
@<TRIPOS>BOND
     1    1    2 1   
     2    1    4 1   
     3    1    5 1   
     4    1    6 1   
     5    2    3 2   
     6    2    7 1   
     7    7    8 1   
     8    7   15 1   
     9    8    9 1   
    10    8   11 1   
    11    8   16 1   
    12    9   10 2   
    13    9   19 1   
    14   11   12 1   
    15   11   17 1   
    16   11   18 1   
    17   12   13 1   
    18   12   14 1   
    19   19   20 1   
    20   19   28 1   
    21   20   21 1   
    22   20   23 1   
    23   20   29 1   
    24   21   22 2   
    25   21   41 1   
    26   23   24 1   
    27   23   30 1   
    28   23   31 1   
    29   24   25 1   
    30   24   32 1   
    31   24   33 1   
    32   25   26 1   
    33   25   34 1   
    34   25   35 1   
    35   26   27 1   
    36   26   36 1   
    37   26   37 1   
    38   27   38 1   
    39   27   39 1   
    40   27   40 1   
    41   41   42 1   
    42   41   49 1   
    43   42   43 1   
    44   42   45 1   
    45   42   50 1   
    46   43   44 2   
    47   43   53 1   
    48   45   46 1   
    49   45   51 1   
    50   45   52 1   
    51   46   47 1   
    52   46   48 1   
    53   53   54 1   
    54   53   57 1   
    55   54   55 1   
    56   54   58 1   
    57   54   59 1   
    58   55   56 2   
    59   55   60 1   
    60   60   61 1   
    61   60   68 1   
    62   61   62 1   
    63   61   64 1   
    64   61   69 1   
    65   62   63 2   
    66   62   74 1   
    67   64   65 1   
    68   64   70 1   
    69   64   71 1   
    70   65   66 1   
    71   65   67 2   
    72   66   72 1   
    73   66   73 1   
    74   74   75 1   
    75   74   78 1   
    76   75   76 1   
    77   75   79 1   
    78   75   80 1   
    79   76   77 2   
    80   76   81 1   
    81   81   82 1   
    82   81   93 1   
    83   82   83 1   
    84   82   85 1   
    85   82   94 1   
    86   83   84 2   
    87   83  102 1   
    88   85   86 1   
    89   85   95 1   
    90   85   96 1   
    91   86   87 ar  
    92   86   88 ar  
    93   87   89 ar  
    94   87   97 1   
    95   88   90 ar  
    96   88   98 1   
    97   89   91 ar  
    98   89   99 1   
    99   90   91 ar  
   100   90  100 1   
   101   91   92 1   
   102   92  101 1   
   103  102  103 1   
   104  102  110 1   
   105  103  104 1   
   106  103  106 1   
   107  103  111 1   
   108  104  105 2   
   109  104  121 1   
   110  106  107 1   
   111  106  108 1   
   112  106  112 1   
   113  107  109 1   
   114  107  113 1   
   115  107  114 1   
   116  108  115 1   
   117  108  116 1   
   118  108  117 1   
   119  109  118 1   
   120  109  119 1   
   121  109  120 1   
   122  121  122 1   
   123  121  127 1   
   124  122  123 1   
   125  122  125 1   
   126  122  128 1   
   127  123  124 2   
   128  123  132 1   
   129  125  126 1   
   130  125  129 1   
   131  125  130 1   
   132  126  131 1   
   133  132  133 1   
   134  132  137 1   
   135  133  134 1   
   136  133  136 1   
   137  133  138 1   
   138  134  135 2   
   139  134  142 1   
   140  136  139 1   
   141  136  140 1   
   142  136  141 1   
   143  142  143 1   
   144  142  147 1   
   145  143  144 1   
   146  143  146 1   
   147  143  148 1   
   148  144  145 2   
   149  144  152 1   
   150  146  149 1   
   151  146  150 1   
   152  146  151 1   
   153  152  153 1   
   154  152  161 1   
   155  153  154 1   
   156  153  156 1   
   157  153  162 1   
   158  154  155 2   
   159  154  167 1   
   160  156  157 1   
   161  156  163 1   
   162  156  164 1   
   163  157  158 1   
   164  157  165 1   
   165  157  166 1   
   166  158  159 1   
   167  158  160 1   
   168  167  168 1   
   169  167  172 1   
   170  168  169 1   
   171  168  170 1   
   172  168  171 1   
   173  174  175 1   
   174  174  176 1   
   175  177  178 1   
   176  177  179 1   
@<TRIPOS>SUBSTRUCTURE
     1 MOL         1 TEMP              0 ****  ****    0 ROOT
