@<TRIPOS>MOLECULE
MOL
  175   173     1     0     0
SMALL
resp


@<TRIPOS>ATOM
      1 C1          0.2940    4.0640    5.4040 c3        1 MOL     -0.302217
      2 C2         -0.2860    3.9450    3.9850 c         1 MOL      0.679597
      3 O1          0.4300    4.1510    2.9420 o         1 MOL     -0.539771
      4 H1         -0.4140    4.5920    6.0420 hc        1 MOL      0.074299
      5 H2          0.4740    3.0680    5.8080 hc        1 MOL      0.074299
      6 H3          1.2330    4.6180    5.3680 hc        1 MOL      0.074299
      7 N1         -1.6040    3.6830    3.8340 n         1 MOL     -0.640511
      8 C3         -2.2910    3.5900    2.5280 c3        1 MOL      0.270709
      9 C4         -2.1890    4.8630    1.6300 c         1 MOL      0.557458
     10 O2         -2.2450    6.0390    2.0690 o         1 MOL     -0.580160
     11 C5         -3.7010    3.1270    2.8220 c3        1 MOL     -0.472499
     12 C6         -4.5850    2.4700    1.6480 c         1 MOL      0.846465
     13 O3         -3.9960    2.2750    0.5490 o         1 MOL     -0.671418
     14 O4         -5.7310    2.1790    1.8250 o         1 MOL     -0.671418
     15 H4         -2.2400    3.4910    4.5930 hn        1 MOL      0.326128
     16 H5         -1.7230    2.7830    2.0450 h1        1 MOL      0.014898
     17 H6         -4.2270    3.9660    3.2800 hc        1 MOL      0.076666
     18 H7         -3.6130    2.3530    3.5840 hc        1 MOL      0.076666
     19 N2         -2.1960    4.5810    0.2870 n         1 MOL     -0.545875
     20 C7         -2.2730    5.5550   -0.8160 c3        1 MOL      0.370004
     21 C8         -3.2280    5.0990   -1.9720 c         1 MOL      0.346333
     22 O5         -3.3100    5.7810   -2.9880 o         1 MOL     -0.534443
     23 C9         -0.8430    5.8280   -1.2270 c3        1 MOL     -0.323040
     24 H8         -2.0870    3.6100    0.0200 hn        1 MOL      0.372413
     25 H9         -2.6950    6.5090   -0.4700 h1        1 MOL      0.009257
     26 H10        -0.8030    6.8640   -1.5370 hc        1 MOL      0.075974
     27 H11        -0.1250    5.7360   -0.4040 hc        1 MOL      0.075974
     28 H12        -0.4950    5.1820   -2.0370 hc        1 MOL      0.075974
     29 N3         -3.9330    3.9410   -1.8280 n         1 MOL     -0.227258
     30 C10        -4.8080    3.3920   -2.8810 c3        1 MOL     -0.002568
     31 C11        -6.1150    2.5920   -2.5650 c         1 MOL      0.401900
     32 O6         -6.8950    2.3680   -3.4360 o         1 MOL     -0.526889
     33 C12        -3.8750    2.5290   -3.8110 c3        1 MOL     -0.105990
     34 C13        -3.0910    1.4490   -3.0460 c         1 MOL      0.713001
     35 O7         -1.9280    1.2150   -3.4050 o         1 MOL     -0.685387
     36 O8         -3.6310    0.6820   -2.2130 o         1 MOL     -0.685387
     37 H13        -3.9120    3.4050   -0.9760 hn        1 MOL      0.048237
     38 H14        -5.1090    4.2180   -3.5240 h1        1 MOL      0.077865
     39 H15        -3.2400    3.2400   -4.3370 hc        1 MOL      0.036740
     40 H16        -4.4780    2.0350   -4.5660 hc        1 MOL      0.036740
     41 N4         -6.2940    2.0460   -1.3370 n         1 MOL     -0.168301
     42 C14        -7.4790    1.2130   -0.9750 c3        1 MOL     -0.345433
     43 C15        -7.3860   -0.2570   -1.3290 c         1 MOL      0.619547
     44 O9         -8.4050   -0.9060   -1.3480 o         1 MOL     -0.637216
     45 H17        -5.5780    2.2120   -0.6510 hn        1 MOL      0.191650
     46 H18        -8.3950    1.5560   -1.4620 h1        1 MOL      0.139185
     47 H19        -7.4990    1.1690    0.1070 h1        1 MOL      0.139185
     48 N5         -6.2050   -0.7840   -1.6260 n         1 MOL     -0.090055
     49 C16        -5.9810   -2.0660   -2.3000 c3        1 MOL     -0.003176
     50 C17        -6.0570   -3.2950   -1.3260 c         1 MOL      0.461096
     51 O10        -5.7490   -4.4360   -1.6690 o         1 MOL     -0.521616
     52 C18        -4.7230   -2.1410   -3.1620 c3        1 MOL     -0.254023
     53 C19        -3.3480   -2.2700   -2.4770 c         1 MOL      0.591885
     54 N6         -2.3570   -2.7480   -3.2100 n         1 MOL     -0.521349
     55 O11        -3.1350   -2.0820   -1.2960 o         1 MOL     -0.683954
     56 H20        -5.3740   -0.2040   -1.5790 hn        1 MOL      0.078437
     57 H21        -6.8330   -2.1500   -2.9680 h1        1 MOL      0.082848
     58 H22        -4.6450   -1.1740   -3.6590 hc        1 MOL      0.087395
     59 H23        -4.7730   -2.9280   -3.9100 hc        1 MOL      0.087395
     60 H24        -2.5740   -3.0610   -4.1380 hn        1 MOL      0.283000
     61 H25        -1.3780   -2.6000   -2.9850 hn        1 MOL      0.283000
     62 N7         -6.2520   -3.0460   -0.0360 n         1 MOL     -0.318464
     63 C20        -6.4290   -4.0600    0.9970 c3        1 MOL     -0.144524
     64 C21        -5.0740   -4.6590    1.4910 c         1 MOL      0.399005
     65 O12        -5.1470   -5.6470    2.2320 o         1 MOL     -0.558157
     66 H26        -6.2700   -2.1000    0.3100 hn        1 MOL      0.230893
     67 H27        -7.2110   -4.7830    0.7510 h1        1 MOL      0.109571
     68 H28        -6.8230   -3.5580    1.8850 h1        1 MOL      0.109571
     69 N8         -3.9690   -4.0430    1.1250 n         1 MOL     -0.067260
     70 C22        -2.6290   -4.5340    1.4040 c3        1 MOL     -0.055340
     71 C23        -1.7040   -3.4070    1.7520 c         1 MOL      0.433439
     72 O13        -1.9240   -2.2570    1.3190 o         1 MOL     -0.503153
     73 C24        -2.0670   -5.4270    0.3270 c3        1 MOL      0.643168
     74 C25        -2.8890   -6.7290    0.1570 c3        1 MOL     -0.451788
     75 O14        -1.8370   -4.8200   -0.9350 oh        1 MOL     -0.663394
     76 H29        -4.0280   -3.1360    0.6930 hn        1 MOL      0.100665
     77 H30        -2.8060   -5.1830    2.2540 h1        1 MOL      0.018136
     78 H31        -1.1000   -5.6750    0.7580 h1        1 MOL     -0.118883
     79 H32        -1.7610   -3.8650   -0.8210 ho        1 MOL      0.398774
     80 H33        -2.4750   -7.4710   -0.5230 hc        1 MOL      0.110066
     81 H34        -3.0590   -7.2500    1.1020 hc        1 MOL      0.110066
     82 H35        -3.8470   -6.3480   -0.2060 hc        1 MOL      0.110066
     83 N9         -0.5900   -3.6400    2.4720 n         1 MOL     -0.434209
     84 C26         0.6360   -2.8470    2.3620 c3        1 MOL     -0.000967
     85 C27         1.3760   -3.1850    1.1130 c         1 MOL      0.485788
     86 O15         1.6800   -4.3590    0.8300 o         1 MOL     -0.560647
     87 C28         1.4840   -2.8910    3.6580 c3        1 MOL      0.128177
     88 C29         0.7480   -1.9270    4.6810 c3        1 MOL      0.002300
     89 C30         2.8710   -2.2970    3.4480 c3        1 MOL     -0.221994
     90 C31         1.1180   -2.4550    6.1070 c3        1 MOL     -0.043515
     91 H36        -0.5130   -4.6070    2.7370 hn        1 MOL      0.269929
     92 H37         0.3720   -1.7880    2.2840 h1        1 MOL      0.069897
     93 H38         1.5670   -3.9030    4.0610 hc        1 MOL      0.020893
     94 H39        -0.3240   -2.0900    4.6440 hc        1 MOL     -0.000977
     95 H40         0.9680   -0.8720    4.5210 hc        1 MOL     -0.000977
     96 H41         3.2790   -2.9430    2.6680 hc        1 MOL      0.049165
     97 H42         2.7120   -1.2650    3.1480 hc        1 MOL      0.049165
     98 H43         3.4980   -2.5170    4.3170 hc        1 MOL      0.049165
     99 H44         0.8680   -3.5200    6.0960 hc        1 MOL     -0.001837
    100 H45         2.1440   -2.3650    6.4520 hc        1 MOL     -0.001837
    101 H46         0.5610   -1.9410    6.8820 hc        1 MOL     -0.001837
    102 N10         1.8220   -2.1240    0.3830 n         1 MOL     -0.326742
    103 C32         2.6400   -2.1390   -0.8720 c3        1 MOL      0.111030
    104 C33         4.0980   -1.7450   -0.5940 c         1 MOL      0.449771
    105 O16         4.2810   -1.0710    0.4340 o         1 MOL     -0.356989
    106 C34         2.1150   -1.1960   -1.9450 c3        1 MOL     -0.245611
    107 C35         0.5790   -1.2950   -2.0740 c         1 MOL      0.672527
    108 O17        -0.1570   -0.8460   -1.1180 o         1 MOL     -0.622008
    109 O18         0.1200   -1.8810   -3.1090 o         1 MOL     -0.622008
    110 H47         1.4690   -1.2330    0.6920 hn        1 MOL      0.308344
    111 H48         2.6870   -3.1730   -1.2230 h1        1 MOL      0.058188
    112 H49         2.5710   -1.5250   -2.8810 hc        1 MOL      0.055230
    113 H50         2.3960   -0.1570   -1.7740 hc        1 MOL      0.055230
    114 N11         5.1630   -2.0510   -1.3900 n         1 MOL     -0.603063
    115 C36         6.5360   -1.6740   -1.1400 c3        1 MOL      0.309954
    116 C37         6.8750   -0.1880   -0.9360 c         1 MOL      0.367903
    117 O19         7.5390    0.1410    0.0450 o         1 MOL     -0.491355
    118 C38         7.3530   -2.3670   -2.2430 c3        1 MOL     -0.288317
    119 C39         8.8320   -2.0540   -2.1060 ca        1 MOL      0.092620
    120 C40         9.6280   -2.7430   -1.1940 ca        1 MOL     -0.111283
    121 C41         9.3450   -1.0720   -2.8990 ca        1 MOL     -0.111283
    122 C42        10.9740   -2.4200   -1.0500 ca        1 MOL     -0.187528
    123 C43        10.7460   -0.7520   -2.8060 ca        1 MOL     -0.187528
    124 C44        11.5450   -1.3820   -1.8620 ca        1 MOL     -0.038584
    125 H51         5.0500   -2.5080   -2.2920 hn        1 MOL      0.320457
    126 H52         6.7040   -2.0840   -0.1460 h1        1 MOL      0.049856
    127 H53         6.9190   -2.1600   -3.2190 hc        1 MOL      0.082025
    128 H54         7.3290   -3.4500   -2.1560 hc        1 MOL      0.082025
    129 H55         9.2190   -3.5010   -0.5370 ha        1 MOL      0.106896
    130 H56         8.6800   -0.6000   -3.6060 ha        1 MOL      0.106896
    131 H57        11.6020   -2.8610   -0.2990 ha        1 MOL      0.130719
    132 H58        11.0580    0.0870   -3.4110 ha        1 MOL      0.130719
    133 H59        12.5990   -1.1560   -1.7810 ha        1 MOL      0.087875
    134 N12         6.3550    0.7620   -1.7970 n         1 MOL     -0.024096
    135 C45         6.6000    2.1960   -1.5130 c3        1 MOL     -0.041852
    136 C46         5.7910    2.7460   -0.2300 c         1 MOL      0.322445
    137 O20         6.2020    3.7730    0.3450 o         1 MOL     -0.501397
    138 C47         6.2170    2.9180   -2.7780 c3        1 MOL      0.007634
    139 C48         6.4870    1.8460   -3.9230 c3        1 MOL     -0.256992
    140 C49         5.9980    0.6270   -3.2040 c3        1 MOL      0.001772
    141 H60         7.6700    2.3460   -1.3700 h1        1 MOL      0.096923
    142 H61         5.1780    3.2350   -2.8740 hc        1 MOL      0.044665
    143 H62         6.8790    3.7800   -2.8780 hc        1 MOL      0.044665
    144 H63         5.8340    2.0960   -4.7610 hc        1 MOL      0.081116
    145 H64         7.5370    1.8390   -4.1930 hc        1 MOL      0.081116
    146 H65         4.9260    0.5360   -3.3730 h1        1 MOL      0.058053
    147 H66         6.2170   -0.3170   -3.7050 h1        1 MOL      0.058053
    148 N13         4.7810    2.0440    0.2200 n         1 MOL     -0.036430
    149 C50         4.0770    2.4010    1.4760 c3        1 MOL     -0.094800
    150 C51         4.9010    2.1110    2.7350 c         1 MOL      0.452482
    151 O21         5.2330    2.9180    3.5380 o         1 MOL     -0.532713
    152 C52         2.6840    1.7340    1.5070 c3        1 MOL     -0.140253
    153 C53         1.6000    2.2460    0.4770 c3        1 MOL     -0.073937
    154 C54         0.1630    1.7580    0.6330 c         1 MOL      0.633375
    155 O22        -0.7090    2.2990   -0.1110 o         1 MOL     -0.722339
    156 O23        -0.1390    0.8070    1.3720 o         1 MOL     -0.722339
    157 H67         4.6910    1.0900   -0.0990 hn        1 MOL     -0.036162
    158 H68         3.9120    3.4820    1.5310 h1        1 MOL      0.113644
    159 H69         2.3260    1.7280    2.5370 hc        1 MOL      0.057090
    160 H70         2.7670    0.6900    1.1950 hc        1 MOL      0.057090
    161 H71         1.8640    2.0940   -0.5710 hc        1 MOL      0.071905
    162 H72         1.6620    3.3310    0.5540 hc        1 MOL      0.071905
    163 N14         5.3690    0.9010    2.7490 n         1 MOL      0.018666
    164 C55         6.3540    0.3150    3.6090 c3        1 MOL     -0.327607
    165 H73         6.0300    0.4070    4.6450 h1        1 MOL      0.105722
    166 H74         6.4750   -0.7390    3.3590 h1        1 MOL      0.105722
    167 H75         7.3040    0.8320    3.4780 h1        1 MOL      0.105722
    168 H76         4.9880    0.1960    2.1230 hn        1 MOL      0.078825
    169 Ca1        -2.3150    0.1090   -0.0430 Ca        1 MOL      1.684126
    170 O24        -2.0250    0.1810    2.9580 oh        1 MOL     -0.710731
    171 H77        -1.9930    0.2090    3.9140 ho        1 MOL      0.357248
    172 H78        -1.1850    0.5420    2.6810 ho        1 MOL      0.357248
    173 O25        -4.4440   -0.6400    1.6860 oh        1 MOL     -0.710731
    174 H79        -5.1980   -0.1020    1.8970 ho        1 MOL      0.357248
    175 H80        -4.0390   -0.8420    2.5290 ho        1 MOL      0.357248
@<TRIPOS>BOND
     1    1    2 1   
     2    1    4 1   
     3    1    5 1   
     4    1    6 1   
     5    2    3 2   
     6    2    7 1   
     7    7    8 1   
     8    7   15 1   
     9    8    9 1   
    10    8   11 1   
    11    8   16 1   
    12    9   10 2   
    13    9   19 1   
    14   11   12 1   
    15   11   17 1   
    16   11   18 1   
    17   12   13 1   
    18   12   14 1   
    19   19   20 1   
    20   19   24 1   
    21   20   21 1   
    22   20   23 1   
    23   20   25 1   
    24   21   22 2   
    25   21   29 1   
    26   23   26 1   
    27   23   27 1   
    28   23   28 1   
    29   29   30 1   
    30   29   37 1   
    31   30   31 1   
    32   30   33 1   
    33   30   38 1   
    34   31   32 2   
    35   31   41 1   
    36   33   34 1   
    37   33   39 1   
    38   33   40 1   
    39   34   35 1   
    40   34   36 1   
    41   41   42 1   
    42   41   45 1   
    43   42   43 1   
    44   42   46 1   
    45   42   47 1   
    46   43   44 2   
    47   43   48 1   
    48   48   49 1   
    49   48   56 1   
    50   49   50 1   
    51   49   52 1   
    52   49   57 1   
    53   50   51 2   
    54   50   62 1   
    55   52   53 1   
    56   52   58 1   
    57   52   59 1   
    58   53   54 1   
    59   53   55 2   
    60   54   60 1   
    61   54   61 1   
    62   62   63 1   
    63   62   66 1   
    64   63   64 1   
    65   63   67 1   
    66   63   68 1   
    67   64   65 2   
    68   64   69 1   
    69   69   70 1   
    70   69   76 1   
    71   70   71 1   
    72   70   73 1   
    73   70   77 1   
    74   71   72 2   
    75   71   83 1   
    76   73   74 1   
    77   73   75 1   
    78   73   78 1   
    79   74   80 1   
    80   74   81 1   
    81   74   82 1   
    82   75   79 1   
    83   83   84 1   
    84   83   91 1   
    85   84   85 1   
    86   84   87 1   
    87   84   92 1   
    88   85   86 2   
    89   85  102 1   
    90   87   88 1   
    91   87   89 1   
    92   87   93 1   
    93   88   90 1   
    94   88   94 1   
    95   88   95 1   
    96   89   96 1   
    97   89   97 1   
    98   89   98 1   
    99   90   99 1   
   100   90  100 1   
   101   90  101 1   
   102  102  103 1   
   103  102  110 1   
   104  103  104 1   
   105  103  106 1   
   106  103  111 1   
   107  104  105 2   
   108  104  114 1   
   109  106  107 1   
   110  106  112 1   
   111  106  113 1   
   112  107  108 1   
   113  107  109 1   
   114  114  115 1   
   115  114  125 1   
   116  115  116 1   
   117  115  118 1   
   118  115  126 1   
   119  116  117 2   
   120  116  134 1   
   121  118  119 1   
   122  118  127 1   
   123  118  128 1   
   124  119  120 ar  
   125  119  121 ar  
   126  120  122 ar  
   127  120  129 1   
   128  121  123 ar  
   129  121  130 1   
   130  122  124 ar  
   131  122  131 1   
   132  123  124 ar  
   133  123  132 1   
   134  124  133 1   
   135  134  135 1   
   136  134  140 1   
   137  135  136 1   
   138  135  138 1   
   139  135  141 1   
   140  136  137 2   
   141  136  148 1   
   142  138  139 1   
   143  138  142 1   
   144  138  143 1   
   145  139  140 1   
   146  139  144 1   
   147  139  145 1   
   148  140  146 1   
   149  140  147 1   
   150  148  149 1   
   151  148  157 1   
   152  149  150 1   
   153  149  152 1   
   154  149  158 1   
   155  150  151 2   
   156  150  163 1   
   157  152  153 1   
   158  152  159 1   
   159  152  160 1   
   160  153  154 1   
   161  153  161 1   
   162  153  162 1   
   163  154  155 1   
   164  154  156 1   
   165  163  164 1   
   166  163  168 1   
   167  164  165 1   
   168  164  166 1   
   169  164  167 1   
   170  170  171 1   
   171  170  172 1   
   172  173  174 1   
   173  173  175 1   
@<TRIPOS>SUBSTRUCTURE
     1 MOL         1 TEMP              0 ****  ****    0 ROOT
