@<TRIPOS>MOLECULE
MOL
  179   176     1     0     0
SMALL
resp


@<TRIPOS>ATOM
      1 C1          2.7680    2.5350    4.6050 c3        1 MOL     -0.367968
      2 C2          1.8170    2.3460    3.4240 c         1 MOL      0.553965
      3 O1          2.3440    2.0360    2.3640 o         1 MOL     -0.511314
      4 H1          3.3860    1.6440    4.7180 hc        1 MOL      0.098330
      5 H2          3.4070    3.3990    4.4230 hc        1 MOL      0.098330
      6 H3          2.1900    2.6930    5.5160 hc        1 MOL      0.098330
      7 N1          0.5360    2.4410    3.5570 n         1 MOL     -0.455346
      8 C3         -0.4020    2.3300    2.4440 c3        1 MOL      0.129241
      9 C4         -0.3810    3.6640    1.7140 c         1 MOL      0.387569
     10 O2         -1.2560    4.5510    1.9170 o         1 MOL     -0.511020
     11 C5         -1.8010    1.8790    2.9190 c3        1 MOL     -0.179516
     12 C6         -2.6760    1.5590    1.7110 c         1 MOL      0.877177
     13 O3         -3.8190    1.0520    1.8120 o         1 MOL     -0.804668
     14 O4         -2.2280    1.6210    0.5870 o         1 MOL     -0.804668
     15 H4          0.1270    2.4760    4.4890 hn        1 MOL      0.306158
     16 H5         -0.0080    1.6380    1.7080 h1        1 MOL      0.001408
     17 H6         -2.2890    2.6940    3.4550 hc        1 MOL      0.051344
     18 H7         -1.6590    0.9800    3.5250 hc        1 MOL      0.051344
     19 N2          0.6440    3.9600    0.8640 n         1 MOL     -0.303234
     20 C7          0.9360    5.3670    0.3830 c3        1 MOL     -0.001772
     21 C8         -0.1010    5.8300   -0.6560 c         1 MOL      0.562153
     22 O5         -0.0220    6.9990   -0.9450 o         1 MOL     -0.593340
     23 C9          2.4020    5.4140   -0.0760 c3        1 MOL     -0.192115
     24 C10         3.2240    5.5000    1.2390 c3        1 MOL      0.017364
     25 C11         4.6750    5.4460    0.8280 c3        1 MOL      0.030249
     26 C12         5.5400    5.6270    2.0670 c3        1 MOL     -0.050065
     27 N3          5.4430    7.0080    2.6190 n4        1 MOL     -0.360999
     28 H8          1.3280    3.2290    0.6840 hn        1 MOL      0.322881
     29 H9          0.7890    6.1400    1.1460 h1        1 MOL      0.073906
     30 H10         2.4230    6.3280   -0.6680 hc        1 MOL      0.077268
     31 H11         2.6740    4.5290   -0.6530 hc        1 MOL      0.077268
     32 H12         3.0630    4.6490    1.8940 hc        1 MOL      0.006602
     33 H13         3.0150    6.3690    1.8520 hc        1 MOL      0.006602
     34 H14         4.9670    6.2810    0.1900 hc        1 MOL      0.042806
     35 H15         4.9240    4.5190    0.3070 hc        1 MOL      0.042806
     36 H16         6.5420    5.3800    1.7360 hx        1 MOL      0.116421
     37 H17         5.3160    4.8870    2.8370 hx        1 MOL      0.116421
     38 H18         5.5300    7.7500    1.9410 hn        1 MOL      0.323044
     39 H19         4.5460    7.1240    3.0780 hn        1 MOL      0.323044
     40 H20         6.0580    7.3310    3.3630 hn        1 MOL      0.323044
     41 N4         -0.9650    5.0150   -1.2080 n         1 MOL     -0.269301
     42 C13        -2.0120    5.3430   -2.1740 c3        1 MOL      0.001896
     43 C14        -3.4320    4.8740   -1.7580 c         1 MOL      0.401801
     44 O6         -4.4700    5.2070   -2.3360 o         1 MOL     -0.526771
     45 C15        -1.6560    4.7190   -3.5210 c3        1 MOL     -0.177908
     46 C16        -1.4790    3.2000   -3.4220 c         1 MOL      0.781722
     47 O7         -1.4710    2.6200   -4.5110 o         1 MOL     -0.704010
     48 O8         -1.4810    2.5420   -2.3540 o         1 MOL     -0.704010
     49 H21        -0.8150    4.0440   -1.0160 hn        1 MOL      0.164881
     50 H22        -2.1110    6.4360   -2.1860 h1        1 MOL      0.107791
     51 H23        -0.7730    5.1520   -4.0020 hc        1 MOL      0.061113
     52 H24        -2.4760    4.8770   -4.2210 hc        1 MOL      0.061113
     53 N5         -3.4970    4.1510   -0.6130 n         1 MOL     -0.070908
     54 C17        -4.7930    3.8580    0.1000 c3        1 MOL     -0.189522
     55 C18        -5.8120    2.8650   -0.5130 c         1 MOL      0.557204
     56 O9         -6.9670    2.9360   -0.2250 o         1 MOL     -0.546876
     57 H25        -2.6770    3.8770   -0.0740 hn        1 MOL      0.064842
     58 H26        -5.2540    4.8330    0.2800 h1        1 MOL      0.109686
     59 H27        -4.6050    3.5050    1.1100 h1        1 MOL      0.109686
     60 N6         -5.3200    1.9620   -1.4080 n         1 MOL     -0.379847
     61 C19        -6.2190    0.9120   -1.9200 c3        1 MOL      0.052432
     62 C20        -6.7300   -0.0840   -0.8310 c         1 MOL      0.268458
     63 O10        -7.4260   -1.0650   -1.1890 o         1 MOL     -0.454253
     64 C21        -5.4750    0.1360   -3.0170 c3        1 MOL     -0.193265
     65 C22        -4.4440   -0.8280   -2.5350 c         1 MOL      0.591384
     66 N7         -4.3730   -2.0770   -3.0110 n         1 MOL     -0.711679
     67 O11        -3.5780   -0.4050   -1.7780 o         1 MOL     -0.634425
     68 H28        -4.3490    1.9880   -1.6800 hn        1 MOL      0.267426
     69 H29        -7.1430    1.3230   -2.3330 h1        1 MOL      0.136172
     70 H30        -5.0770    0.7260   -3.8420 hc        1 MOL      0.074570
     71 H31        -6.3030   -0.4090   -3.4760 hc        1 MOL      0.074570
     72 H32        -5.0760   -2.3680   -3.6640 hn        1 MOL      0.370357
     73 H33        -3.4730   -2.4950   -2.8180 hn        1 MOL      0.370357
     74 N8         -6.3560   -0.0610    0.5110 n         1 MOL     -0.058700
     75 C23        -6.7720   -0.9920    1.5530 c3        1 MOL     -0.513685
     76 C24        -5.5930   -1.8250    2.0420 c         1 MOL      0.887125
     77 O12        -5.7390   -2.4900    3.0560 o         1 MOL     -0.629532
     78 H34        -5.5840    0.5600    0.7030 hn        1 MOL      0.238889
     79 H35        -7.6260   -1.6100    1.2530 h1        1 MOL      0.199540
     80 H36        -7.0120   -0.4450    2.4660 h1        1 MOL      0.199540
     81 N9         -4.4200   -1.7890    1.4290 n         1 MOL     -0.767475
     82 C25        -3.3530   -2.8080    1.6190 c3        1 MOL      0.379862
     83 C26        -1.9980   -2.2560    1.3910 c         1 MOL      0.623781
     84 O13        -1.8070   -1.2930    0.6030 o         1 MOL     -0.604998
     85 C27        -3.5700   -4.0450    0.6780 c3        1 MOL     -0.043834
     86 C28        -4.9940   -4.5350    0.5600 ca        1 MOL      0.040487
     87 C29        -6.0030   -3.8890   -0.2760 ca        1 MOL     -0.243605
     88 C30        -5.4460   -5.6020    1.3550 ca        1 MOL     -0.243605
     89 C31        -7.3550   -4.2970   -0.2980 ca        1 MOL     -0.174494
     90 C32        -6.8700   -5.8320    1.5380 ca        1 MOL     -0.174494
     91 C33        -7.8000   -5.2440    0.6920 ca        1 MOL      0.261940
     92 O14        -9.0770   -5.4390    0.8560 oh        1 MOL     -0.434374
     93 H37        -4.2120   -0.9750    0.8680 hn        1 MOL      0.428090
     94 H38        -3.3970   -3.1900    2.6350 h1        1 MOL     -0.006397
     95 H39        -2.9140   -4.8100    1.0970 hc        1 MOL      0.011566
     96 H40        -3.1870   -3.7250   -0.2920 hc        1 MOL      0.011566
     97 H41        -5.6220   -3.0900   -0.9040 ha        1 MOL      0.148655
     98 H42        -4.7700   -6.0530    2.0550 ha        1 MOL      0.148655
     99 H43        -7.9990   -3.6660   -0.8900 ha        1 MOL      0.123249
    100 H44        -7.2360   -6.4800    2.3210 ha        1 MOL      0.123249
    101 H45        -9.2120   -6.2970    1.2700 ho        1 MOL      0.348673
    102 N10        -0.9830   -2.8860    1.9770 n         1 MOL     -0.753271
    103 C34         0.4900   -2.5080    1.8830 c3        1 MOL      0.076781
    104 C35         1.2570   -3.5600    1.0310 c         1 MOL      0.664750
    105 O15         1.2410   -4.7450    1.4270 o         1 MOL     -0.581415
    106 C36         1.0950   -2.3820    3.2600 c3        1 MOL      0.239833
    107 C37         0.5120   -1.1840    4.1640 c3        1 MOL      0.183446
    108 C38         2.6400   -2.2180    3.1650 c3        1 MOL     -0.363757
    109 C39         0.6820   -1.3430    5.7100 c3        1 MOL     -0.270459
    110 H46        -1.2800   -3.5970    2.6280 hn        1 MOL      0.351600
    111 H47         0.5800   -1.5320    1.4020 h1        1 MOL      0.047998
    112 H48         0.9470   -3.2850    3.8400 hc        1 MOL     -0.014426
    113 H49        -0.5690   -1.2860    4.0930 hc        1 MOL     -0.032121
    114 H50         0.8650   -0.2550    3.7370 hc        1 MOL     -0.032121
    115 H51         2.9090   -1.3400    2.5820 hc        1 MOL      0.067350
    116 H52         3.0750   -2.0520    4.1590 hc        1 MOL      0.067350
    117 H53         3.1510   -2.9640    2.5540 hc        1 MOL      0.067350
    118 H54         0.1850   -0.6030    6.3370 hc        1 MOL      0.061933
    119 H55         0.2180   -2.2860    5.9770 hc        1 MOL      0.061933
    120 H56         1.7450   -1.3870    5.9330 hc        1 MOL      0.061933
    121 N11         2.0110   -3.1270    0.0320 n         1 MOL     -0.409702
    122 C40         2.7240   -3.9980   -0.8370 c3        1 MOL     -0.006067
    123 C41         4.2640   -3.9790   -0.5580 c         1 MOL      0.547619
    124 O16         4.8160   -3.1520    0.1830 o         1 MOL     -0.460001
    125 C42         2.4310   -3.5760   -2.2990 c3        1 MOL     -0.105128
    126 O17         3.0930   -2.3550   -2.5410 oh        1 MOL     -0.447014
    127 H57         2.1880   -2.1560   -0.1520 hn        1 MOL      0.295095
    128 H58         2.4070   -5.0320   -0.6910 h1        1 MOL      0.057424
    129 H59         1.3750   -3.4170   -2.5110 h1        1 MOL      0.096766
    130 H60         2.7900   -4.3640   -2.9660 h1        1 MOL      0.096766
    131 H61         2.4500   -1.6690   -2.3410 ho        1 MOL      0.332475
    132 N12         4.9980   -4.9520   -1.0920 n         1 MOL     -0.470823
    133 C43         6.4990   -4.9960   -0.8940 c3        1 MOL      0.054477
    134 C44         7.1750   -3.7510   -1.5070 c         1 MOL      0.513662
    135 O18         8.0900   -3.2130   -0.8930 o         1 MOL     -0.497527
    136 C45         7.0800   -6.2980   -1.4290 c3        1 MOL     -0.406104
    137 H62         4.6020   -5.6330   -1.7230 hn        1 MOL      0.303339
    138 H63         6.6700   -5.0480    0.1810 h1        1 MOL      0.136132
    139 H64         6.8200   -7.0770   -0.7140 hc        1 MOL      0.124597
    140 H65         6.7510   -6.4690   -2.4600 hc        1 MOL      0.124597
    141 H66         8.1670   -6.2190   -1.4450 hc        1 MOL      0.124597
    142 N13         6.6100   -3.2730   -2.6670 n         1 MOL     -0.499013
    143 C46         7.0030   -1.8910   -3.1720 c3        1 MOL      0.155396
    144 C47         6.8940   -0.7440   -2.0660 c         1 MOL      0.286861
    145 O19         7.8640    0.0160   -1.9480 o         1 MOL     -0.508538
    146 C48         6.3000   -1.5150   -4.4740 c3        1 MOL     -0.174098
    147 H67         5.9100   -3.8670   -3.0760 hn        1 MOL      0.321378
    148 H68         8.0510   -2.0150   -3.4400 h1        1 MOL      0.077300
    149 H69         5.2240   -1.5210   -4.3070 hc        1 MOL      0.047726
    150 H70         6.7230   -0.5950   -4.8610 hc        1 MOL      0.047726
    151 H71         6.4480   -2.3140   -5.2170 hc        1 MOL      0.047726
    152 N14         5.8930   -0.7460   -1.1930 n         1 MOL      0.115723
    153 C49         5.7690    0.2330   -0.1400 c3        1 MOL     -0.039121
    154 C50         6.5840   -0.0920    1.0650 c         1 MOL      0.389713
    155 O20         7.1170    0.9060    1.6410 o         1 MOL     -0.564121
    156 C51         4.2860    0.4700    0.1490 c3        1 MOL      0.117688
    157 C52         3.4460    1.0120   -0.9810 c3        1 MOL     -0.087273
    158 C53         1.9640    0.6880   -0.9910 c         1 MOL      0.842594
    159 O21         1.1030    1.5270   -1.0880 o         1 MOL     -0.808323
    160 O22         1.5690   -0.4840   -0.9360 o         1 MOL     -0.808323
    161 H72         5.1490   -1.4130   -1.3210 hn        1 MOL      0.010505
    162 H73         6.1300    1.1530   -0.5860 h1        1 MOL      0.062926
    163 H74         4.2090    1.2100    0.9430 hc        1 MOL     -0.024934
    164 H75         3.8070   -0.4630    0.4420 hc        1 MOL     -0.024934
    165 H76         3.8840    0.7340   -1.9510 hc        1 MOL     -0.000334
    166 H77         3.6090    2.0840   -0.9600 hc        1 MOL     -0.000334
    167 N15         6.9050   -1.3630    1.4100 n         1 MOL     -0.077429
    168 C54         7.8670   -1.5900    2.5130 c3        1 MOL     -0.217943
    169 H78         8.2740   -2.5990    2.4380 h1        1 MOL      0.095904
    170 H79         8.6780   -0.8670    2.4440 h1        1 MOL      0.095904
    171 H80         7.3580   -1.4740    3.4700 h1        1 MOL      0.095904
    172 H81         6.5470   -2.1110    0.8430 hn        1 MOL      0.116258
    173 Ca1        -1.0890    0.2160   -1.3280 Ca        1 MOL      1.799033
    174 O23        -1.2420   -2.3040   -2.5340 oh        1 MOL     -0.905523
    175 H82        -1.0450   -2.2210   -3.4710 ho        1 MOL      0.421556
    176 H83        -1.2250   -3.2450   -2.3780 ho        1 MOL      0.421556
    177 O24        -0.9090    0.2450   -4.0680 oh        1 MOL     -0.905523
    178 H84        -1.1440    1.1690   -4.1100 ho        1 MOL      0.421556
    179 H85        -1.0730   -0.0760   -4.9530 ho        1 MOL      0.421556
@<TRIPOS>BOND
     1    1    2 1   
     2    1    4 1   
     3    1    5 1   
     4    1    6 1   
     5    2    3 2   
     6    2    7 1   
     7    7    8 1   
     8    7   15 1   
     9    8    9 1   
    10    8   11 1   
    11    8   16 1   
    12    9   10 2   
    13    9   19 1   
    14   11   12 1   
    15   11   17 1   
    16   11   18 1   
    17   12   13 1   
    18   12   14 1   
    19   19   20 1   
    20   19   28 1   
    21   20   21 1   
    22   20   23 1   
    23   20   29 1   
    24   21   22 2   
    25   21   41 1   
    26   23   24 1   
    27   23   30 1   
    28   23   31 1   
    29   24   25 1   
    30   24   32 1   
    31   24   33 1   
    32   25   26 1   
    33   25   34 1   
    34   25   35 1   
    35   26   27 1   
    36   26   36 1   
    37   26   37 1   
    38   27   38 1   
    39   27   39 1   
    40   27   40 1   
    41   41   42 1   
    42   41   49 1   
    43   42   43 1   
    44   42   45 1   
    45   42   50 1   
    46   43   44 2   
    47   43   53 1   
    48   45   46 1   
    49   45   51 1   
    50   45   52 1   
    51   46   47 1   
    52   46   48 1   
    53   53   54 1   
    54   53   57 1   
    55   54   55 1   
    56   54   58 1   
    57   54   59 1   
    58   55   56 2   
    59   55   60 1   
    60   60   61 1   
    61   60   68 1   
    62   61   62 1   
    63   61   64 1   
    64   61   69 1   
    65   62   63 2   
    66   62   74 1   
    67   64   65 1   
    68   64   70 1   
    69   64   71 1   
    70   65   66 1   
    71   65   67 2   
    72   66   72 1   
    73   66   73 1   
    74   74   75 1   
    75   74   78 1   
    76   75   76 1   
    77   75   79 1   
    78   75   80 1   
    79   76   77 2   
    80   76   81 1   
    81   81   82 1   
    82   81   93 1   
    83   82   83 1   
    84   82   85 1   
    85   82   94 1   
    86   83   84 2   
    87   83  102 1   
    88   85   86 1   
    89   85   95 1   
    90   85   96 1   
    91   86   87 ar  
    92   86   88 ar  
    93   87   89 ar  
    94   87   97 1   
    95   88   90 ar  
    96   88   98 1   
    97   89   91 ar  
    98   89   99 1   
    99   90   91 ar  
   100   90  100 1   
   101   91   92 1   
   102   92  101 1   
   103  102  103 1   
   104  102  110 1   
   105  103  104 1   
   106  103  106 1   
   107  103  111 1   
   108  104  105 2   
   109  104  121 1   
   110  106  107 1   
   111  106  108 1   
   112  106  112 1   
   113  107  109 1   
   114  107  113 1   
   115  107  114 1   
   116  108  115 1   
   117  108  116 1   
   118  108  117 1   
   119  109  118 1   
   120  109  119 1   
   121  109  120 1   
   122  121  122 1   
   123  121  127 1   
   124  122  123 1   
   125  122  125 1   
   126  122  128 1   
   127  123  124 2   
   128  123  132 1   
   129  125  126 1   
   130  125  129 1   
   131  125  130 1   
   132  126  131 1   
   133  132  133 1   
   134  132  137 1   
   135  133  134 1   
   136  133  136 1   
   137  133  138 1   
   138  134  135 2   
   139  134  142 1   
   140  136  139 1   
   141  136  140 1   
   142  136  141 1   
   143  142  143 1   
   144  142  147 1   
   145  143  144 1   
   146  143  146 1   
   147  143  148 1   
   148  144  145 2   
   149  144  152 1   
   150  146  149 1   
   151  146  150 1   
   152  146  151 1   
   153  152  153 1   
   154  152  161 1   
   155  153  154 1   
   156  153  156 1   
   157  153  162 1   
   158  154  155 2   
   159  154  167 1   
   160  156  157 1   
   161  156  163 1   
   162  156  164 1   
   163  157  158 1   
   164  157  165 1   
   165  157  166 1   
   166  158  159 1   
   167  158  160 1   
   168  167  168 1   
   169  167  172 1   
   170  168  169 1   
   171  168  170 1   
   172  168  171 1   
   173  174  175 1   
   174  174  176 1   
   175  177  178 1   
   176  177  179 1   
@<TRIPOS>SUBSTRUCTURE
     1 MOL         1 TEMP              0 ****  ****    0 ROOT
