@<TRIPOS>MOLECULE
MOL
  189   185     1     0     0
SMALL
resp


@<TRIPOS>ATOM
      1 C1          0.7010   -4.8810    5.3680 c3        1 MOL     -0.317636
      2 C2          1.2310   -4.1730    4.1460 c         1 MOL      0.778371
      3 O1          1.3410   -2.9290    4.0620 o         1 MOL     -0.628764
      4 H1         -0.2850   -5.2920    5.1500 hc        1 MOL      0.079926
      5 H2          1.3780   -5.6900    5.6420 hc        1 MOL      0.079926
      6 H3          0.6240   -4.1740    6.1940 hc        1 MOL      0.079926
      7 N1          1.6560   -4.8810    3.1300 n         1 MOL     -0.629100
      8 C3          2.2560   -4.2620    1.9590 c3        1 MOL      0.284558
      9 C4          2.1100   -5.0560    0.7010 c         1 MOL      0.423061
     10 O2          2.3210   -6.2900    0.6810 o         1 MOL     -0.583809
     11 C5          3.7450   -3.8820    2.2730 c3        1 MOL     -0.298155
     12 C6          4.4940   -2.8900    1.3910 c         1 MOL      0.832361
     13 O3          5.6540   -2.6590    1.7420 o         1 MOL     -0.699945
     14 O4          3.9150   -2.3820    0.4040 o         1 MOL     -0.699945
     15 H4          1.9730   -5.8200    3.2940 hn        1 MOL      0.310374
     16 H5          1.7310   -3.3230    1.7390 h1        1 MOL     -0.024046
     17 H6          4.2960   -4.8170    2.1030 hc        1 MOL      0.057311
     18 H7          3.8950   -3.5880    3.3110 hc        1 MOL      0.057311
     19 N2          1.7360   -4.4170   -0.4260 n         1 MOL     -0.166587
     20 C7          1.5570   -5.0260   -1.8170 c3        1 MOL     -0.020953
     21 C8          2.8600   -4.8670   -2.6360 c         1 MOL      0.661739
     22 O5          3.1430   -5.7310   -3.4740 o         1 MOL     -0.597287
     23 C9          0.3480   -4.4080   -2.5760 c3        1 MOL      0.065058
     24 C10        -0.9630   -4.4100   -1.6940 c3        1 MOL      0.245561
     25 C11         0.1400   -5.3630   -3.8260 c3        1 MOL     -0.220490
     26 C12        -1.5620   -5.7650   -1.3710 c3        1 MOL     -0.371291
     27 H8          1.5210   -3.4370   -0.4340 hn        1 MOL      0.079323
     28 H9          1.3670   -6.0880   -1.6290 h1        1 MOL      0.049157
     29 H10         0.6350   -3.4280   -2.9400 hc        1 MOL     -0.018381
     30 H11        -1.7420   -3.8920   -2.2590 hc        1 MOL     -0.046261
     31 H12        -0.9300   -3.7500   -0.8210 hc        1 MOL     -0.046261
     32 H13         0.0170   -6.4290   -3.6090 hc        1 MOL      0.048547
     33 H14        -0.8310   -5.0640   -4.2410 hc        1 MOL      0.048547
     34 H15         0.9990   -5.2800   -4.4820 hc        1 MOL      0.048547
     35 H16        -1.9570   -6.1980   -2.2850 hc        1 MOL      0.082664
     36 H17        -0.7860   -6.3450   -0.8720 hc        1 MOL      0.082664
     37 H18        -2.3460   -5.4710   -0.6680 hc        1 MOL      0.082664
     38 N3          3.6630   -3.8580   -2.3660 n         1 MOL     -0.595403
     39 C13         4.4880   -3.1580   -3.4080 c3        1 MOL      0.217423
     40 C14         5.7490   -2.5370   -2.8600 c         1 MOL      0.324071
     41 O6          6.5630   -2.1290   -3.6560 o         1 MOL     -0.518089
     42 C15         3.5740   -2.0520   -3.8890 c3        1 MOL     -0.308172
     43 C16         2.9540   -1.1770   -2.7860 c         1 MOL      0.803475
     44 O7          3.7000   -0.5990   -1.9210 o         1 MOL     -0.706190
     45 O8          1.7370   -0.8360   -2.8590 o         1 MOL     -0.706190
     46 H19         3.5380   -3.3340   -1.5050 hn        1 MOL      0.278391
     47 H20         4.8250   -3.7030   -4.2830 h1        1 MOL      0.075430
     48 H21         2.7450   -2.4980   -4.4390 hc        1 MOL      0.081726
     49 H22         4.0680   -1.3730   -4.5840 hc        1 MOL      0.081726
     50 N4          6.0190   -2.3550   -1.5360 n         1 MOL     -0.167225
     51 C17         7.2840   -1.7450   -1.0360 c3        1 MOL     -0.190013
     52 C18         7.4470   -0.2940   -1.4250 c         1 MOL      0.496006
     53 O9          8.5850    0.1350   -1.7130 o         1 MOL     -0.618462
     54 H23         5.3970   -2.6440   -0.7880 hn        1 MOL      0.149899
     55 H24         8.1070   -2.3770   -1.3840 h1        1 MOL      0.097477
     56 H25         7.1830   -1.7810    0.0410 h1        1 MOL      0.097477
     57 N5          6.4290    0.5290   -1.3840 n         1 MOL     -0.176832
     58 C19         6.5960    1.8860   -1.8650 c3        1 MOL     -0.130466
     59 C20         6.8400    2.9640   -0.8080 c         1 MOL      0.438357
     60 O10         7.0360    4.1490   -1.1990 o         1 MOL     -0.535543
     61 C21         5.3210    2.3140   -2.6280 c3        1 MOL     -0.177923
     62 C22         4.0160    2.4910   -1.8610 c         1 MOL      0.622506
     63 O11         3.9680    2.0720   -0.6230 o         1 MOL     -0.629934
     64 O12         3.0390    2.9310   -2.4390 o         1 MOL     -0.629934
     65 H26         5.5120    0.0990   -1.3170 hn        1 MOL      0.327021
     66 H27         7.4640    1.9610   -2.5130 h1        1 MOL      0.149013
     67 H28         5.0620    1.4950   -3.3100 hc        1 MOL      0.064907
     68 H29         5.4660    3.1470   -3.3290 hc        1 MOL      0.064907
     69 N6          6.7990    2.6210    0.4950 n         1 MOL     -0.236134
     70 C23         6.8290    3.5110    1.6680 c3        1 MOL     -0.143999
     71 C24         5.5570    4.2600    2.0180 c         1 MOL      0.588859
     72 O13         5.6910    5.2760    2.6840 o         1 MOL     -0.582895
     73 H30         6.4410    1.6990    0.6750 hn        1 MOL      0.142414
     74 H31         7.6190    4.2640    1.6370 h1        1 MOL      0.082148
     75 H32         7.0930    2.8740    2.5130 h1        1 MOL      0.082148
     76 N7          4.3820    3.7570    1.5380 n         1 MOL     -0.441352
     77 C25         2.9670    4.2640    1.7530 c3        1 MOL      0.033766
     78 C26         2.0630    3.1910    2.1630 c         1 MOL      0.568220
     79 O14         2.4240    2.0190    2.1020 o         1 MOL     -0.584253
     80 C27         2.4090    4.9300    0.4900 c3        1 MOL      0.227708
     81 C28         3.3820    5.8060   -0.3890 c3        1 MOL     -0.418850
     82 C29         2.7090    6.3900   -1.5910 c         1 MOL      0.699510
     83 N8          2.2870    5.6610   -2.5750 n         1 MOL     -0.736797
     84 O15         2.3680    7.5270   -1.6740 o         1 MOL     -0.640737
     85 H33         4.4140    3.0180    0.8570 hn        1 MOL      0.266339
     86 H34         2.8700    5.0020    2.5480 h1        1 MOL      0.026251
     87 H35         1.5120    5.4980    0.7510 hc        1 MOL     -0.019222
     88 H36         2.0580    4.1640   -0.1980 hc        1 MOL     -0.019222
     89 H37         4.1580    5.1310   -0.7590 hc        1 MOL      0.124292
     90 H38         3.7960    6.5650    0.2710 hc        1 MOL      0.124292
     91 H39         2.4540    4.6720   -2.5210 hn        1 MOL      0.339751
     92 H40         1.8210    6.1650   -3.3070 hn        1 MOL      0.339751
     93 N9          0.8870    3.6310    2.6000 n         1 MOL     -0.482326
     94 C30        -0.3440    2.7910    2.8510 c3        1 MOL      0.002490
     95 C31        -1.5510    3.2330    1.9570 c         1 MOL      0.380199
     96 O16        -2.0430    4.3600    1.9310 o         1 MOL     -0.553877
     97 C32        -0.7510    2.8830    4.3000 c3        1 MOL      0.182224
     98 C33        -2.1910    2.4170    4.5690 c3        1 MOL     -0.236620
     99 C34         0.2880    1.9990    5.1230 c3        1 MOL     -0.236620
    100 H41         0.8900    4.5960    2.8940 hn        1 MOL      0.281427
    101 H42        -0.1120    1.7450    2.6870 h1        1 MOL      0.105671
    102 H43        -0.5880    3.8890    4.6990 hc        1 MOL      0.004003
    103 H44        -2.2900    1.4370    4.1030 hc        1 MOL      0.050876
    104 H45        -2.3270    2.4170    5.6540 hc        1 MOL      0.050876
    105 H46        -2.9640    3.0360    4.1160 hc        1 MOL      0.050876
    106 H47         0.2870    0.9660    4.7850 hc        1 MOL      0.050876
    107 H48         1.2720    2.4230    5.3620 hc        1 MOL      0.050876
    108 H49        -0.0450    2.0630    6.1540 hc        1 MOL      0.050876
    109 N10        -1.9830    2.3130    1.1030 n         1 MOL     -0.122549
    110 C35        -3.0420    2.4300    0.0960 c3        1 MOL      0.082214
    111 C36        -4.3230    1.9020    0.7570 c         1 MOL      0.064647
    112 O17        -4.2430    1.2120    1.7740 o         1 MOL     -0.170661
    113 C37        -2.6660    1.5590   -1.1100 c3        1 MOL     -0.332826
    114 C38        -3.6820    1.5900   -2.1910 c         1 MOL      0.707902
    115 N11        -3.9860    2.7230   -2.8550 n         1 MOL     -0.823355
    116 O18        -4.2810    0.5510   -2.4160 o         1 MOL     -0.552190
    117 H50        -1.5700    1.3920    1.1750 hn        1 MOL      0.141408
    118 H51        -3.1740    3.4300   -0.3260 h1        1 MOL      0.060978
    119 H52        -2.4930    0.5270   -0.8240 hc        1 MOL      0.127788
    120 H53        -1.7220    1.8930   -1.5590 hc        1 MOL      0.127788
    121 H54        -3.5070    3.5780   -2.6040 hn        1 MOL      0.379619
    122 H55        -4.7480    2.6250   -3.5070 hn        1 MOL      0.379619
    123 N12        -5.4280    2.2990    0.2410 n         1 MOL     -0.077692
    124 C39        -6.7030    1.9420    0.7660 c3        1 MOL      0.115662
    125 C40        -6.9160    0.4980    0.8000 c         1 MOL      0.338773
    126 O19        -7.6550   -0.0370    1.6300 o         1 MOL     -0.566750
    127 C41        -7.8150    2.6490    0.0160 c3        1 MOL     -0.191716
    128 C42        -7.6410    2.7340   -1.5220 ca        1 MOL      0.023358
    129 C43        -7.3220    3.9600   -2.1120 ca        1 MOL     -0.075259
    130 C44        -7.7290    1.5560   -2.3120 ca        1 MOL     -0.075259
    131 C45        -7.0700    4.0190   -3.4900 ca        1 MOL     -0.335592
    132 C46        -7.4500    1.6540   -3.6770 ca        1 MOL     -0.335592
    133 C47        -7.1240    2.8820   -4.3300 ca        1 MOL      0.435452
    134 O20        -6.8680    2.9290   -5.6640 oh        1 MOL     -0.588023
    135 H56        -5.4630    2.8550   -0.5960 hn        1 MOL      0.108062
    136 H57        -6.7500    2.2320    1.8130 h1        1 MOL      0.041235
    137 H58        -7.8250    3.6600    0.4110 hc        1 MOL      0.072556
    138 H59        -8.7850    2.2290    0.2910 hc        1 MOL      0.072556
    139 H60        -7.3750    4.8620   -1.5250 ha        1 MOL      0.094186
    140 H61        -8.0200    0.6360   -1.8180 ha        1 MOL      0.094186
    141 H62        -6.8500    4.9870   -3.9090 ha        1 MOL      0.134091
    142 H63        -7.4850    0.7930   -4.3320 ha        1 MOL      0.134091
    143 H64        -7.1740    2.1290   -6.0880 ho        1 MOL      0.429092
    144 N13        -6.3910   -0.2900   -0.1480 n         1 MOL      0.219213
    145 C48        -6.3480   -1.7490   -0.1370 c3        1 MOL     -0.468239
    146 C49        -5.5420   -2.3540    1.0300 c         1 MOL      0.547773
    147 O21        -5.8750   -3.5130    1.4050 o         1 MOL     -0.530774
    148 C50        -5.7780   -2.3300   -1.4060 c3        1 MOL      0.092388
    149 C51        -6.6030   -2.1280   -2.7040 c3        1 MOL     -0.149995
    150 C52        -8.1710   -2.3340   -2.4930 c         1 MOL      0.569705
    151 O22        -8.5620   -3.4410   -2.0640 o         1 MOL     -0.665553
    152 O23        -9.0390   -1.4150   -2.6240 o         1 MOL     -0.665553
    153 H65        -5.9360    0.1890   -0.9150 hn        1 MOL      0.166311
    154 H66        -7.3870   -2.0450   -0.0440 h1        1 MOL      0.222488
    155 H67        -5.7730   -3.4030   -1.2400 hc        1 MOL      0.029217
    156 H68        -4.7540   -1.9920   -1.5620 hc        1 MOL      0.029217
    157 H69        -6.2630   -2.8510   -3.4490 hc        1 MOL      0.008978
    158 H70        -6.4300   -1.1110   -3.0830 hc        1 MOL      0.008978
    159 N14        -4.5430   -1.6520    1.5890 n         1 MOL     -0.285532
    160 C53        -3.6720   -2.1240    2.6720 c3        1 MOL      0.016239
    161 C54        -4.2100   -1.7030    4.0160 c         1 MOL      0.470627
    162 O24        -4.2900   -2.4830    4.9540 o         1 MOL     -0.557637
    163 C55        -2.1870   -1.5570    2.5280 c3        1 MOL     -0.135223
    164 C56        -1.4540   -2.0150    1.2070 c3        1 MOL      0.207356
    165 C57        -0.1400   -1.2950    1.0110 c         1 MOL      0.562279
    166 O25         0.7110   -1.8420    0.3020 o         1 MOL     -0.594070
    167 O26         0.0720   -0.0870    1.2330 o         1 MOL     -0.594070
    168 H71        -4.4640   -0.6820    1.3190 hn        1 MOL      0.062184
    169 H72        -3.5810   -3.2100    2.7840 h1        1 MOL      0.060350
    170 H73        -1.5870   -1.7290    3.4300 hc        1 MOL      0.031422
    171 H74        -2.4350   -0.4990    2.4030 hc        1 MOL      0.031422
    172 H75        -2.0490   -1.9240    0.3060 hc        1 MOL     -0.027652
    173 H76        -1.2670   -3.0840    1.3050 hc        1 MOL     -0.027652
    174 N15        -4.7190   -0.4510    4.0770 n         1 MOL     -0.045176
    175 C58        -5.2680    0.1230    5.3200 c3        1 MOL     -0.276508
    176 H77        -6.2680   -0.2730    5.4920 h1        1 MOL      0.091538
    177 H78        -4.6240   -0.1420    6.1580 h1        1 MOL      0.091538
    178 H79        -5.3180    1.2090    5.2280 h1        1 MOL      0.091538
    179 H80        -4.7180    0.1420    3.2540 hn        1 MOL      0.041881
    180 Ca1         2.6430   -0.1280    0.3790 Ca        1 MOL      1.668618
    181 O27         2.6460   -0.8120    2.9580 oh        1 MOL     -0.909417
    182 H81         3.0170   -0.3000    3.6770 ho        1 MOL      0.425149
    183 H82         2.1680   -1.5120    3.3850 ho        1 MOL      0.425149
    184 O28         5.1800   -0.0350    1.1660 oh        1 MOL     -0.909417
    185 H83         5.3980   -0.9550    1.3320 ho        1 MOL      0.425149
    186 H84         5.6310    0.4510    1.8600 ho        1 MOL      0.425149
    187 O29         1.0990    1.3260   -1.3570 oh        1 MOL     -0.909417
    188 H85         1.1320    0.6790   -2.0670 ho        1 MOL      0.425149
    189 H86         1.7770    1.9580   -1.5870 ho        1 MOL      0.425149
@<TRIPOS>BOND
     1    1    2 1   
     2    1    4 1   
     3    1    5 1   
     4    1    6 1   
     5    2    3 2   
     6    2    7 1   
     7    7    8 1   
     8    7   15 1   
     9    8    9 1   
    10    8   11 1   
    11    8   16 1   
    12    9   10 2   
    13    9   19 1   
    14   11   12 1   
    15   11   17 1   
    16   11   18 1   
    17   12   13 1   
    18   12   14 1   
    19   19   20 1   
    20   19   27 1   
    21   20   21 1   
    22   20   23 1   
    23   20   28 1   
    24   21   22 2   
    25   21   38 1   
    26   23   24 1   
    27   23   25 1   
    28   23   29 1   
    29   24   26 1   
    30   24   30 1   
    31   24   31 1   
    32   25   32 1   
    33   25   33 1   
    34   25   34 1   
    35   26   35 1   
    36   26   36 1   
    37   26   37 1   
    38   38   39 1   
    39   38   46 1   
    40   39   40 1   
    41   39   42 1   
    42   39   47 1   
    43   40   41 2   
    44   40   50 1   
    45   42   43 1   
    46   42   48 1   
    47   42   49 1   
    48   43   44 1   
    49   43   45 1   
    50   50   51 1   
    51   50   54 1   
    52   51   52 1   
    53   51   55 1   
    54   51   56 1   
    55   52   53 2   
    56   52   57 1   
    57   57   58 1   
    58   57   65 1   
    59   58   59 1   
    60   58   61 1   
    61   58   66 1   
    62   59   60 2   
    63   59   69 1   
    64   61   62 1   
    65   61   67 1   
    66   61   68 1   
    67   62   63 1   
    68   62   64 1   
    69   69   70 1   
    70   69   73 1   
    71   70   71 1   
    72   70   74 1   
    73   70   75 1   
    74   71   72 2   
    75   71   76 1   
    76   76   77 1   
    77   76   85 1   
    78   77   78 1   
    79   77   80 1   
    80   77   86 1   
    81   78   79 2   
    82   78   93 1   
    83   80   81 1   
    84   80   87 1   
    85   80   88 1   
    86   81   82 1   
    87   81   89 1   
    88   81   90 1   
    89   82   83 1   
    90   82   84 2   
    91   83   91 1   
    92   83   92 1   
    93   93   94 1   
    94   93  100 1   
    95   94   95 1   
    96   94   97 1   
    97   94  101 1   
    98   95   96 2   
    99   95  109 1   
   100   97   98 1   
   101   97   99 1   
   102   97  102 1   
   103   98  103 1   
   104   98  104 1   
   105   98  105 1   
   106   99  106 1   
   107   99  107 1   
   108   99  108 1   
   109  109  110 1   
   110  109  117 1   
   111  110  111 1   
   112  110  113 1   
   113  110  118 1   
   114  111  112 2   
   115  111  123 1   
   116  113  114 1   
   117  113  119 1   
   118  113  120 1   
   119  114  115 1   
   120  114  116 2   
   121  115  121 1   
   122  115  122 1   
   123  123  124 1   
   124  123  135 1   
   125  124  125 1   
   126  124  127 1   
   127  124  136 1   
   128  125  126 2   
   129  125  144 1   
   130  127  128 1   
   131  127  137 1   
   132  127  138 1   
   133  128  129 ar  
   134  128  130 ar  
   135  129  131 ar  
   136  129  139 1   
   137  130  132 ar  
   138  130  140 1   
   139  131  133 ar  
   140  131  141 1   
   141  132  133 ar  
   142  132  142 1   
   143  133  134 1   
   144  134  143 1   
   145  144  145 1   
   146  144  153 1   
   147  145  146 1   
   148  145  148 1   
   149  145  154 1   
   150  146  147 2   
   151  146  159 1   
   152  148  149 1   
   153  148  155 1   
   154  148  156 1   
   155  149  150 1   
   156  149  157 1   
   157  149  158 1   
   158  150  151 1   
   159  150  152 1   
   160  159  160 1   
   161  159  168 1   
   162  160  161 1   
   163  160  163 1   
   164  160  169 1   
   165  161  162 2   
   166  161  174 1   
   167  163  164 1   
   168  163  170 1   
   169  163  171 1   
   170  164  165 1   
   171  164  172 1   
   172  164  173 1   
   173  165  166 1   
   174  165  167 1   
   175  174  175 1   
   176  174  179 1   
   177  175  176 1   
   178  175  177 1   
   179  175  178 1   
   180  181  182 1   
   181  181  183 1   
   182  184  185 1   
   183  184  186 1   
   184  187  188 1   
   185  187  189 1   
@<TRIPOS>SUBSTRUCTURE
     1 MOL         1 TEMP              0 ****  ****    0 ROOT
