@<TRIPOS>MOLECULE
MOL
  186   183     1     0     0
SMALL
resp


@<TRIPOS>ATOM
      1 C1          0.4660   -1.9030    6.2810 c3        1 MOL     -0.356579
      2 C2          0.9750   -1.9630    4.8130 c         1 MOL      0.677299
      3 O1          0.2330   -2.4630    3.9830 o         1 MOL     -0.535242
      4 H1          1.2940   -1.6480    6.9420 hc        1 MOL      0.084579
      5 H2         -0.3130   -1.1450    6.3650 hc        1 MOL      0.084579
      6 H3          0.0600   -2.8740    6.5650 hc        1 MOL      0.084579
      7 N1          2.1850   -1.4730    4.5340 n         1 MOL     -0.584146
      8 C3          2.6480   -1.3260    3.1460 c3        1 MOL      0.050243
      9 C4          3.0520   -2.7460    2.5360 c         1 MOL      0.691451
     10 O2          4.1030   -3.1880    2.8410 o         1 MOL     -0.535277
     11 C5          3.8160   -0.3540    3.1120 c3        1 MOL     -0.117581
     12 C6          4.3610   -0.1480    1.7170 c         1 MOL      0.841262
     13 O3          5.4230    0.5580    1.6330 o         1 MOL     -0.766085
     14 O4          3.7750   -0.6530    0.7110 o         1 MOL     -0.766085
     15 H4          2.6480   -0.8990    5.2160 hn        1 MOL      0.327945
     16 H5          1.8460   -0.9220    2.5320 h1        1 MOL     -0.010522
     17 H6          4.4890   -0.7330    3.8850 hc        1 MOL      0.017964
     18 H7          3.5430    0.6440    3.4370 hc        1 MOL      0.017964
     19 N2          2.0660   -3.4380    1.8770 n         1 MOL     -0.420132
     20 C7          2.2240   -4.8700    1.5470 c3        1 MOL     -0.039653
     21 C8          3.2840   -5.1320    0.4850 c         1 MOL      0.363991
     22 O5          4.0600   -6.1180    0.5850 o         1 MOL     -0.572024
     23 C9          0.8530   -5.3710    1.0380 c3        1 MOL      0.097129
     24 C10        -0.2240   -5.3220    2.0970 c3        1 MOL      0.420219
     25 C11         0.8570   -6.8550    0.5090 c3        1 MOL     -0.235419
     26 C12        -1.6020   -5.8230    1.7920 c3        1 MOL     -0.296676
     27 H8          1.2570   -2.9710    1.5110 hn        1 MOL      0.209401
     28 H9          2.4110   -5.4740    2.4420 h1        1 MOL      0.071032
     29 H10         0.5980   -4.8450    0.1230 hc        1 MOL      0.046443
     30 H11        -0.3110   -4.3150    2.5050 hc        1 MOL     -0.111290
     31 H12         0.0960   -5.9430    2.9350 hc        1 MOL     -0.111290
     32 H13         1.4950   -6.9470   -0.3720 hc        1 MOL      0.042392
     33 H14         1.2050   -7.5860    1.2410 hc        1 MOL      0.042392
     34 H15        -0.1470   -7.1320    0.1760 hc        1 MOL      0.042392
     35 H16        -1.6830   -6.9060    1.6870 hc        1 MOL      0.058056
     36 H17        -2.3040   -5.5860    2.5990 hc        1 MOL      0.058056
     37 H18        -1.8440   -5.1800    0.9500 hc        1 MOL      0.058056
     38 N3          3.3690   -4.3230   -0.5610 n         1 MOL     -0.098344
     39 C13         4.3380   -4.4510   -1.6440 c3        1 MOL     -0.004099
     40 C14         5.6220   -3.6220   -1.4950 c         1 MOL      0.317444
     41 O6          6.5160   -3.6420   -2.3950 o         1 MOL     -0.476712
     42 C15         3.6300   -4.3390   -2.9810 c3        1 MOL     -0.208298
     43 C16         3.0390   -2.9720   -3.2940 c         1 MOL      0.874331
     44 O7          2.3290   -2.8240   -4.3570 o         1 MOL     -0.771676
     45 O8          3.2110   -2.0000   -2.5510 o         1 MOL     -0.771676
     46 H19         2.6610   -3.5980   -0.5630 hn        1 MOL      0.176863
     47 H20         4.7920   -5.4430   -1.7080 h1        1 MOL      0.091163
     48 H21         2.7560   -4.9800   -2.9300 hc        1 MOL      0.047928
     49 H22         4.3170   -4.6230   -3.7800 hc        1 MOL      0.047928
     50 N4          5.7670   -2.8140   -0.3770 n         1 MOL      0.069671
     51 C17         7.0930   -2.2940    0.0430 c3        1 MOL     -0.442120
     52 C18         7.6360   -1.2730   -0.8750 c         1 MOL      0.746908
     53 O9          8.5620   -1.6040   -1.6360 o         1 MOL     -0.606496
     54 H23         4.9010   -2.6380    0.1110 hn        1 MOL      0.018006
     55 H24         7.7930   -3.1290    0.0730 h1        1 MOL      0.136001
     56 H25         6.8600   -1.8050    0.9890 h1        1 MOL      0.136001
     57 N5          7.1920   -0.0630   -0.7380 n         1 MOL     -0.511953
     58 C19         7.7210    1.1430   -1.3710 c3        1 MOL      0.170989
     59 C20         7.8200    2.3960   -0.4690 c         1 MOL      0.395643
     60 O10         8.6260    3.3030   -0.8020 o         1 MOL     -0.568950
     61 C21         6.8980    1.4840   -2.6470 c3        1 MOL     -0.154628
     62 C22         5.3730    1.6390   -2.3030 c         1 MOL      0.744010
     63 O11         4.5540    0.7790   -2.5130 o         1 MOL     -0.736681
     64 O12         5.0160    2.7580   -1.8600 o         1 MOL     -0.736681
     65 H26         6.4500    0.0520   -0.0630 hn        1 MOL      0.220282
     66 H27         8.7620    1.0010   -1.6700 h1        1 MOL      0.032072
     67 H28         7.0490    0.7280   -3.4170 hc        1 MOL      0.033396
     68 H29         7.2710    2.4360   -3.0300 hc        1 MOL      0.033396
     69 N6          7.1180    2.4820    0.6360 n         1 MOL     -0.333131
     70 C23         6.9400    3.7380    1.5530 c3        1 MOL     -0.041625
     71 C24         5.5180    4.3600    1.5290 c         1 MOL      0.653352
     72 O13         5.3990    5.4680    2.0380 o         1 MOL     -0.662589
     73 H30         6.6010    1.6680    0.9250 hn        1 MOL      0.298916
     74 H31         7.7080    4.5020    1.4440 h1        1 MOL      0.062939
     75 H32         6.9770    3.3290    2.5660 h1        1 MOL      0.062939
     76 N7          4.5010    3.7630    0.9590 n         1 MOL     -0.478578
     77 C25         3.1290    4.2140    0.9480 c3        1 MOL     -0.072749
     78 C26         2.1920    3.0570    1.0320 c         1 MOL      0.632702
     79 O14         2.4000    1.9730    0.5020 o         1 MOL     -0.633395
     80 C27         2.7800    5.1100   -0.2780 c3        1 MOL      0.053240
     81 C28         3.5280    6.4530   -0.2370 c3        1 MOL     -0.246286
     82 C29         3.0980    7.4550   -1.2710 c         1 MOL      0.709210
     83 N8          3.9130    8.4870   -1.4700 n         1 MOL     -0.860973
     84 O15         2.0100    7.3990   -1.8290 o         1 MOL     -0.584928
     85 H33         4.7210    2.9480    0.4010 hn        1 MOL      0.356078
     86 H34         2.9910    4.9370    1.7720 h1        1 MOL      0.084918
     87 H35         1.7320    5.3790   -0.1500 hc        1 MOL      0.019916
     88 H36         2.8580    4.5110   -1.1880 hc        1 MOL      0.019916
     89 H37         4.5580    6.2440   -0.5160 hc        1 MOL      0.105538
     90 H38         3.3720    6.9060    0.7460 hc        1 MOL      0.105538
     91 H39         4.8990    8.3500   -1.2800 hn        1 MOL      0.370447
     92 H40         3.4900    9.2680   -1.9530 hn        1 MOL      0.370447
     93 N9          1.0770    3.3650    1.6700 n         1 MOL     -0.340029
     94 C30        -0.1950    2.5890    1.7940 c3        1 MOL      0.034782
     95 C31        -1.2670    3.0260    0.7630 c         1 MOL      0.411731
     96 O16        -1.6450    4.1690    0.8140 o         1 MOL     -0.567435
     97 C32        -0.7040    2.7070    3.2460 c3        1 MOL      0.109764
     98 C33        -1.9520    1.9280    3.5210 c3        1 MOL     -0.201985
     99 C34         0.4000    2.1390    4.1840 c3        1 MOL     -0.201985
    100 H41         1.0920    4.2400    2.1800 hn        1 MOL      0.212042
    101 H42         0.0640    1.5440    1.5750 h1        1 MOL      0.138758
    102 H43        -1.0140    3.7120    3.4980 hc        1 MOL      0.024988
    103 H44        -2.7720    2.4230    2.9930 hc        1 MOL      0.041041
    104 H45        -1.9280    0.9100    3.1550 hc        1 MOL      0.041041
    105 H46        -2.3360    2.1350    4.5210 hc        1 MOL      0.041041
    106 H47         0.7440    1.1400    3.9320 hc        1 MOL      0.041041
    107 H48         1.3260    2.6960    4.0720 hc        1 MOL      0.041041
    108 H49         0.1660    2.0580    5.2490 hc        1 MOL      0.041041
    109 N10        -1.7640    2.1780   -0.1280 n         1 MOL     -0.133155
    110 C35        -2.8750    2.4270   -1.1150 c3        1 MOL      0.058068
    111 C36        -4.2920    2.1130   -0.4770 c         1 MOL      0.332579
    112 O17        -4.3230    1.3300    0.5120 o         1 MOL     -0.403734
    113 C37        -2.6500    1.5330   -2.3300 c3        1 MOL     -0.273444
    114 C38        -3.5690    1.7900   -3.4880 c         1 MOL      0.685260
    115 N11        -3.4970    2.8700   -4.0760 n         1 MOL     -0.696712
    116 O18        -4.5050    1.1380   -3.8370 o         1 MOL     -0.573192
    117 H50        -1.3370    1.2670   -0.1510 hn        1 MOL      0.101137
    118 H51        -2.8160    3.4760   -1.3850 h1        1 MOL      0.047668
    119 H52        -2.8280    0.5180   -1.9790 hc        1 MOL      0.114238
    120 H53        -1.6670    1.5960   -2.8010 hc        1 MOL      0.114238
    121 H54        -2.8100    3.5610   -3.7850 hn        1 MOL      0.332367
    122 H55        -4.3600    3.0460   -4.5680 hn        1 MOL      0.332367
    123 N12        -5.4320    2.5870   -0.8760 n         1 MOL     -0.331051
    124 C39        -6.7130    2.0980   -0.4500 c3        1 MOL      0.185638
    125 C40        -6.8570    0.4920   -0.4120 c         1 MOL      0.563174
    126 O19        -7.2650   -0.0480    0.5910 o         1 MOL     -0.517202
    127 C41        -7.7920    2.7790   -1.2940 c3        1 MOL     -0.255596
    128 C42        -9.1450    2.4990   -0.5700 ca        1 MOL     -0.023575
    129 C43        -9.4510    3.1110    0.6740 ca        1 MOL     -0.108606
    130 C44       -10.1910    1.7170   -1.1840 ca        1 MOL     -0.108606
    131 C45       -10.7350    2.9310    1.3000 ca        1 MOL     -0.301803
    132 C46       -11.4660    1.5820   -0.5590 ca        1 MOL     -0.301803
    133 C47       -11.6750    2.0330    0.7310 ca        1 MOL      0.402470
    134 O20       -12.9080    1.8630    1.3810 oh        1 MOL     -0.535992
    135 H56        -5.4440    3.4350   -1.4320 hn        1 MOL      0.224899
    136 H57        -6.7910    2.4230    0.5830 h1        1 MOL      0.044138
    137 H58        -7.7260    2.4520   -2.3340 hc        1 MOL      0.095996
    138 H59        -7.5910    3.8490   -1.2650 hc        1 MOL      0.095996
    139 H60        -8.7600    3.7520    1.1810 ha        1 MOL      0.134371
    140 H61       -10.0360    1.2710   -2.1550 ha        1 MOL      0.134371
    141 H62       -10.9290    3.5500    2.1680 ha        1 MOL      0.150829
    142 H63       -12.3070    1.0780   -1.0050 ha        1 MOL      0.150829
    143 H64       -13.5030    1.2700    0.9230 ho        1 MOL      0.366379
    144 N13        -6.2460   -0.1820   -1.3660 n         1 MOL     -0.357210
    145 C48        -6.2790   -1.7160   -1.3650 c3        1 MOL     -0.217757
    146 C49        -5.5890   -2.2780   -0.0770 c         1 MOL      0.358501
    147 O21        -6.0690   -3.2580    0.5720 o         1 MOL     -0.500164
    148 C50        -5.7040   -2.3250   -2.7020 c3        1 MOL      0.195558
    149 C51        -5.6780   -3.8330   -2.7670 c3        1 MOL     -0.197057
    150 C52        -5.1090   -4.4360   -4.0590 c         1 MOL      0.652570
    151 O22        -5.8960   -4.7360   -4.9910 o         1 MOL     -0.718247
    152 O23        -3.8090   -4.5560   -4.0640 o         1 MOL     -0.718247
    153 H65        -5.8000    0.2870   -2.1450 hn        1 MOL      0.181359
    154 H66        -7.3240   -2.0010   -1.3710 h1        1 MOL      0.133444
    155 H67        -4.6760   -1.9570   -2.7700 hc        1 MOL     -0.018754
    156 H68        -6.2480   -1.9720   -3.5860 hc        1 MOL     -0.018754
    157 H69        -6.7230   -4.1470   -2.7400 hc        1 MOL      0.017659
    158 H70        -5.0200   -4.1360   -1.9570 hc        1 MOL      0.017659
    159 N14        -4.4380   -1.6410    0.2230 n         1 MOL     -0.117867
    160 C53        -3.6920   -2.0980    1.3680 c3        1 MOL     -0.085740
    161 C54        -4.1840   -1.6170    2.7470 c         1 MOL      0.374400
    162 O24        -3.9490   -2.2250    3.7970 o         1 MOL     -0.551366
    163 C55        -2.2170   -1.5780    1.1920 c3        1 MOL      0.094563
    164 C56        -1.5180   -1.9750   -0.0800 c3        1 MOL     -0.179175
    165 C57        -0.1560   -1.3910   -0.2160 c         1 MOL      0.912679
    166 O25         0.8250   -2.0700   -0.4700 o         1 MOL     -0.808673
    167 O26         0.0040   -0.1700   -0.2450 o         1 MOL     -0.808673
    168 H71        -4.1880   -0.8140   -0.2990 hn        1 MOL      0.289563
    169 H72        -3.6610   -3.1870    1.3770 h1        1 MOL      0.109265
    170 H73        -1.6250   -2.0230    1.9860 hc        1 MOL      0.028969
    171 H74        -2.1950   -0.4930    1.3300 hc        1 MOL      0.028969
    172 H75        -2.1220   -1.4390   -0.8210 hc        1 MOL      0.011857
    173 H76        -1.5120   -3.0550   -0.2340 hc        1 MOL      0.011857
    174 N15        -4.9060   -0.4900    2.7530 n         1 MOL      0.025358
    175 C58        -5.6010    0.0730    3.8900 c3        1 MOL     -0.187169
    176 H77        -6.5740    0.4470    3.5710 h1        1 MOL      0.067709
    177 H78        -5.7390   -0.6960    4.6500 h1        1 MOL      0.067709
    178 H79        -5.0160    0.8940    4.3040 h1        1 MOL      0.067709
    179 H80        -5.0070   -0.0210    1.8620 hn        1 MOL      0.031287
    180 Ca1         2.3510   -0.1210   -1.2890 Ca        1 MOL      1.802149
    181 O27         0.6920   -0.7590   -3.4760 oh        1 MOL     -0.897241
    182 H81        -0.1830   -0.9460   -3.8050 ho        1 MOL      0.426034
    183 H82         1.2820   -1.2710   -4.0170 ho        1 MOL      0.426034
    184 O28         2.3480    2.3340   -2.6250 oh        1 MOL     -0.897241
    185 H83         2.8520    2.1440   -3.4160 ho        1 MOL      0.426034
    186 H84         2.8580    2.9970   -2.1670 ho        1 MOL      0.426034
@<TRIPOS>BOND
     1    1    2 1   
     2    1    4 1   
     3    1    5 1   
     4    1    6 1   
     5    2    3 2   
     6    2    7 1   
     7    7    8 1   
     8    7   15 1   
     9    8    9 1   
    10    8   11 1   
    11    8   16 1   
    12    9   10 2   
    13    9   19 1   
    14   11   12 1   
    15   11   17 1   
    16   11   18 1   
    17   12   13 1   
    18   12   14 1   
    19   19   20 1   
    20   19   27 1   
    21   20   21 1   
    22   20   23 1   
    23   20   28 1   
    24   21   22 2   
    25   21   38 1   
    26   23   24 1   
    27   23   25 1   
    28   23   29 1   
    29   24   26 1   
    30   24   30 1   
    31   24   31 1   
    32   25   32 1   
    33   25   33 1   
    34   25   34 1   
    35   26   35 1   
    36   26   36 1   
    37   26   37 1   
    38   38   39 1   
    39   38   46 1   
    40   39   40 1   
    41   39   42 1   
    42   39   47 1   
    43   40   41 2   
    44   40   50 1   
    45   42   43 1   
    46   42   48 1   
    47   42   49 1   
    48   43   44 1   
    49   43   45 1   
    50   50   51 1   
    51   50   54 1   
    52   51   52 1   
    53   51   55 1   
    54   51   56 1   
    55   52   53 2   
    56   52   57 1   
    57   57   58 1   
    58   57   65 1   
    59   58   59 1   
    60   58   61 1   
    61   58   66 1   
    62   59   60 2   
    63   59   69 1   
    64   61   62 1   
    65   61   67 1   
    66   61   68 1   
    67   62   63 1   
    68   62   64 1   
    69   69   70 1   
    70   69   73 1   
    71   70   71 1   
    72   70   74 1   
    73   70   75 1   
    74   71   72 2   
    75   71   76 1   
    76   76   77 1   
    77   76   85 1   
    78   77   78 1   
    79   77   80 1   
    80   77   86 1   
    81   78   79 2   
    82   78   93 1   
    83   80   81 1   
    84   80   87 1   
    85   80   88 1   
    86   81   82 1   
    87   81   89 1   
    88   81   90 1   
    89   82   83 1   
    90   82   84 2   
    91   83   91 1   
    92   83   92 1   
    93   93   94 1   
    94   93  100 1   
    95   94   95 1   
    96   94   97 1   
    97   94  101 1   
    98   95   96 2   
    99   95  109 1   
   100   97   98 1   
   101   97   99 1   
   102   97  102 1   
   103   98  103 1   
   104   98  104 1   
   105   98  105 1   
   106   99  106 1   
   107   99  107 1   
   108   99  108 1   
   109  109  110 1   
   110  109  117 1   
   111  110  111 1   
   112  110  113 1   
   113  110  118 1   
   114  111  112 2   
   115  111  123 1   
   116  113  114 1   
   117  113  119 1   
   118  113  120 1   
   119  114  115 1   
   120  114  116 2   
   121  115  121 1   
   122  115  122 1   
   123  123  124 1   
   124  123  135 1   
   125  124  125 1   
   126  124  127 1   
   127  124  136 1   
   128  125  126 2   
   129  125  144 1   
   130  127  128 1   
   131  127  137 1   
   132  127  138 1   
   133  128  129 ar  
   134  128  130 ar  
   135  129  131 ar  
   136  129  139 1   
   137  130  132 ar  
   138  130  140 1   
   139  131  133 ar  
   140  131  141 1   
   141  132  133 ar  
   142  132  142 1   
   143  133  134 1   
   144  134  143 1   
   145  144  145 1   
   146  144  153 1   
   147  145  146 1   
   148  145  148 1   
   149  145  154 1   
   150  146  147 2   
   151  146  159 1   
   152  148  149 1   
   153  148  155 1   
   154  148  156 1   
   155  149  150 1   
   156  149  157 1   
   157  149  158 1   
   158  150  151 1   
   159  150  152 1   
   160  159  160 1   
   161  159  168 1   
   162  160  161 1   
   163  160  163 1   
   164  160  169 1   
   165  161  162 2   
   166  161  174 1   
   167  163  164 1   
   168  163  170 1   
   169  163  171 1   
   170  164  165 1   
   171  164  172 1   
   172  164  173 1   
   173  165  166 1   
   174  165  167 1   
   175  174  175 1   
   176  174  179 1   
   177  175  176 1   
   178  175  177 1   
   179  175  178 1   
   180  181  182 1   
   181  181  183 1   
   182  184  185 1   
   183  184  186 1   
@<TRIPOS>SUBSTRUCTURE
     1 MOL         1 TEMP              0 ****  ****    0 ROOT
