@<TRIPOS>MOLECULE
MOL
  175   173     1     0     0
SMALL
resp


@<TRIPOS>ATOM
      1 C1         -0.2260    3.5480    5.6440 c3        1 MOL     -0.373870
      2 C2         -0.6240    3.2160    4.2110 c         1 MOL      0.788194
      3 O1          0.0220    3.6840    3.2900 o         1 MOL     -0.599501
      4 H1          0.8300    3.8160    5.6740 hc        1 MOL      0.086656
      5 H2         -0.8230    4.3860    6.0030 hc        1 MOL      0.086656
      6 H3         -0.3970    2.6790    6.2800 hc        1 MOL      0.086656
      7 N1         -1.7030    2.4710    3.9880 n         1 MOL     -0.762042
      8 C3         -2.3590    2.2680    2.6980 c3        1 MOL      0.372404
      9 C4         -2.6980    3.5670    2.0600 c         1 MOL      0.625180
     10 O2         -3.4260    4.3720    2.6410 o         1 MOL     -0.639143
     11 C5         -3.5670    1.4320    2.9170 c3        1 MOL     -0.288788
     12 C6         -4.0330    0.7370    1.6790 c         1 MOL      0.880864
     13 O3         -3.3880    0.8810    0.6240 o         1 MOL     -0.794573
     14 O4         -5.0300    0.0080    1.7510 o         1 MOL     -0.794573
     15 H4         -2.0590    2.0020    4.8000 hn        1 MOL      0.331372
     16 H5         -1.6810    1.7810    1.9930 h1        1 MOL     -0.023388
     17 H6         -4.3740    2.0720    3.2820 hc        1 MOL      0.048631
     18 H7         -3.2480    0.6810    3.6410 hc        1 MOL      0.048631
     19 N2         -2.1190    3.8030    0.8950 n         1 MOL     -0.298713
     20 C7         -2.1990    5.1200    0.3290 c3        1 MOL      0.123942
     21 C8         -3.3360    5.2600   -0.7620 c         1 MOL      0.345753
     22 O5         -3.7720    6.3800   -0.9740 o         1 MOL     -0.559144
     23 C9         -0.8830    5.5300   -0.3160 c3        1 MOL     -0.183079
     24 H8         -1.6690    3.0910    0.3460 hn        1 MOL      0.297821
     25 H9         -2.3180    5.8230    1.1540 h1        1 MOL      0.052179
     26 H10        -0.8690    6.5450   -0.7190 hc        1 MOL      0.046560
     27 H11        -0.1100    5.4260    0.4450 hc        1 MOL      0.046560
     28 H12        -0.6020    4.7530   -1.0320 hc        1 MOL      0.046560
     29 N3         -3.7770    4.1400   -1.3250 n         1 MOL     -0.155276
     30 C10        -4.8250    3.9840   -2.3360 c3        1 MOL      0.136524
     31 C11        -5.9560    3.1540   -1.7870 c         1 MOL      0.365484
     32 O6         -6.9660    2.9360   -2.4360 o         1 MOL     -0.561318
     33 C12        -4.2910    3.2650   -3.6450 c3        1 MOL     -0.184283
     34 C13        -3.6950    1.8880   -3.6110 c         1 MOL      0.733984
     35 O7         -3.1780    1.4090   -2.5370 o         1 MOL     -0.675310
     36 O8         -3.7110    1.2790   -4.7070 o         1 MOL     -0.675310
     37 H13        -3.2630    3.3180   -1.0790 hn        1 MOL      0.116760
     38 H14        -5.3350    4.9150   -2.5630 h1        1 MOL      0.060239
     39 H15        -3.5550    3.9930   -3.9950 hc        1 MOL      0.033103
     40 H16        -5.1480    3.2750   -4.3090 hc        1 MOL      0.033103
     41 N4         -5.8770    2.6180   -0.5870 n         1 MOL     -0.032516
     42 C14        -7.0270    2.0330    0.1650 c3        1 MOL     -0.413548
     43 C15        -7.3730    0.5720   -0.2790 c         1 MOL      0.719419
     44 O9         -8.3760    0.1220    0.1280 o         1 MOL     -0.609169
     45 H17        -4.9680    2.7550   -0.1650 hn        1 MOL      0.029569
     46 H18        -7.9220    2.6380    0.0200 h1        1 MOL      0.164780
     47 H19        -6.6810    1.9340    1.2000 h1        1 MOL      0.164780
     48 N5         -6.6200   -0.0900   -1.1630 n         1 MOL     -0.365610
     49 C16        -6.8670   -1.4670   -1.5850 c3        1 MOL     -0.106212
     50 C17        -6.8590   -2.5330   -0.4610 c         1 MOL      0.478624
     51 O10        -7.1780   -3.6990   -0.6960 o         1 MOL     -0.580169
     52 C18        -5.8200   -1.8060   -2.7010 c3        1 MOL     -0.172621
     53 C19        -4.4380   -2.2480   -2.2650 c         1 MOL      0.367090
     54 N6         -3.9220   -3.2870   -2.8570 n         1 MOL     -0.549299
     55 O11        -3.8710   -1.7120   -1.3380 o         1 MOL     -0.400903
     56 H20        -5.7580    0.3640   -1.4300 hn        1 MOL      0.239556
     57 H21        -7.8300   -1.5240   -2.0860 h1        1 MOL      0.127298
     58 H22        -5.7700   -1.0060   -3.4310 hc        1 MOL      0.087499
     59 H23        -6.3170   -2.5970   -3.2620 hc        1 MOL      0.087499
     60 H24        -4.4200   -3.4990   -3.7110 hn        1 MOL      0.294459
     61 H25        -3.2020   -3.7670   -2.3470 hn        1 MOL      0.294459
     62 N7         -6.4970   -2.1960    0.7740 n         1 MOL     -0.176465
     63 C20        -6.4860   -3.1050    1.9010 c3        1 MOL     -0.115074
     64 C21        -5.1530   -3.8610    2.1390 c         1 MOL      0.510172
     65 O12        -5.0860   -4.6930    3.0370 o         1 MOL     -0.592610
     66 H26        -6.1740   -1.2410    0.8650 hn        1 MOL      0.265156
     67 H27        -7.2530   -3.8470    1.6930 h1        1 MOL      0.086489
     68 H28        -6.8000   -2.7160    2.8650 h1        1 MOL      0.086489
     69 N8         -4.1210   -3.5490    1.3800 n         1 MOL     -0.197692
     70 C22        -2.7510   -4.2060    1.4670 c3        1 MOL      0.016728
     71 C23        -1.5710   -3.1920    1.3150 c         1 MOL      0.519912
     72 O13        -1.7300   -2.0600    0.8740 o         1 MOL     -0.598153
     73 C24        -2.4130   -5.2510    0.4030 c3        1 MOL      0.249384
     74 C25        -3.4650   -6.3610    0.4050 c3        1 MOL     -0.324237
     75 O14        -2.4160   -4.7930   -0.9200 oh        1 MOL     -0.515064
     76 H29        -4.3180   -2.8500    0.6880 hn        1 MOL      0.195524
     77 H30        -2.7110   -4.7260    2.4270 h1        1 MOL      0.070419
     78 H31        -1.4630   -5.7300    0.6320 h1        1 MOL      0.037986
     79 H32        -2.4450   -5.5730   -1.4750 ho        1 MOL      0.374088
     80 H33        -4.3010   -6.0510   -0.2370 hc        1 MOL      0.078659
     81 H34        -3.0010   -7.2720    0.0280 hc        1 MOL      0.078659
     82 H35        -3.7310   -6.6070    1.4350 hc        1 MOL      0.078659
     83 N9         -0.3140   -3.6690    1.6230 n         1 MOL     -0.568245
     84 C26         0.7840   -2.7370    1.6380 c3        1 MOL      0.156686
     85 C27         1.7050   -2.9450    0.4170 c         1 MOL      0.471492
     86 O15         2.0870   -4.0700    0.0800 o         1 MOL     -0.583175
     87 C28         1.4920   -2.8790    2.9910 c3        1 MOL      0.058910
     88 C29         0.6000   -2.3050    4.1050 c3        1 MOL      0.039245
     89 C30         2.8660   -2.2480    3.1040 c3        1 MOL     -0.135917
     90 C31         1.1360   -2.5840    5.5190 c3        1 MOL     -0.168404
     91 H36        -0.2280   -4.5980    2.0010 hn        1 MOL      0.289731
     92 H37         0.4920   -1.6920    1.6730 h1        1 MOL      0.139230
     93 H38         1.6560   -3.9410    3.1870 hc        1 MOL     -0.017389
     94 H39        -0.4340   -2.6430    4.0070 hc        1 MOL      0.007140
     95 H40         0.6710   -1.2410    3.8740 hc        1 MOL      0.007140
     96 H41         2.7030   -1.1690    3.0990 hc        1 MOL      0.025699
     97 H42         3.4190   -2.4430    4.0210 hc        1 MOL      0.025699
     98 H43         3.4930   -2.5930    2.2850 hc        1 MOL      0.025699
     99 H44         1.1370   -3.6450    5.7290 hc        1 MOL      0.034009
    100 H45         2.1570   -2.2090    5.6290 hc        1 MOL      0.034009
    101 H46         0.4780   -2.1570    6.2790 hc        1 MOL      0.034009
    102 N10         2.0870   -1.8420   -0.2750 n         1 MOL     -0.089887
    103 C32         3.0770   -1.8310   -1.3150 c3        1 MOL      0.020671
    104 C33         4.4530   -1.4010   -0.7500 c         1 MOL      0.433508
    105 O16         4.5940   -0.7800    0.3130 o         1 MOL     -0.300249
    106 C34         2.6100   -0.7870   -2.3950 c3        1 MOL     -0.464958
    107 C35         1.2080   -1.1470   -2.9050 c         1 MOL      0.883714
    108 O17         1.0720   -2.0990   -3.6920 o         1 MOL     -0.726750
    109 O18         0.2820   -0.3870   -2.6830 o         1 MOL     -0.726750
    110 H47         1.8760   -0.9580    0.1530 hn        1 MOL      0.008243
    111 H48         3.2010   -2.8210   -1.7620 h1        1 MOL      0.079612
    112 H49         3.3620   -0.7870   -3.1890 hc        1 MOL      0.128917
    113 H50         2.6310    0.1990   -1.9290 hc        1 MOL      0.128917
    114 N11         5.5870   -1.7830   -1.4260 n         1 MOL     -0.638065
    115 C36         6.9700   -1.3300   -1.0030 c3        1 MOL      0.365190
    116 C37         7.1100    0.1670   -0.6460 c         1 MOL      0.325991
    117 O19         7.6890    0.4670    0.4270 o         1 MOL     -0.502960
    118 C38         7.8800   -1.7710   -2.1270 c3        1 MOL     -0.227448
    119 C39         9.3710   -1.6190   -1.8380 ca        1 MOL      0.162791
    120 C40        10.0490   -0.4360   -2.2200 ca        1 MOL     -0.253046
    121 C41        10.0080   -2.6250   -1.0500 ca        1 MOL     -0.253046
    122 C42        11.3670   -0.2570   -1.8610 ca        1 MOL     -0.046818
    123 C43        11.3140   -2.2920   -0.5670 ca        1 MOL     -0.046818
    124 C44        12.0130   -1.1620   -1.0580 ca        1 MOL     -0.164574
    125 H51         5.4320   -2.0320   -2.3860 hn        1 MOL      0.326570
    126 H52         7.2020   -1.8990   -0.1020 h1        1 MOL      0.032267
    127 H53         7.7390   -1.0940   -2.9680 hc        1 MOL      0.064817
    128 H54         7.7040   -2.8380   -2.3000 hc        1 MOL      0.064817
    129 H55         9.5340    0.4040   -2.6730 ha        1 MOL      0.151289
    130 H56         9.6200   -3.5970   -0.8030 ha        1 MOL      0.151289
    131 H57        11.8630    0.6420   -2.1640 ha        1 MOL      0.096667
    132 H58        11.7970   -2.8900    0.1930 ha        1 MOL      0.096667
    133 H59        13.0380   -0.9500   -0.7800 ha        1 MOL      0.106874
    134 N12         6.5200    1.1480   -1.4550 n         1 MOL      0.041760
    135 C45         6.6660    2.5310   -1.0110 c3        1 MOL     -0.059658
    136 C46         5.7130    2.8950    0.1800 c         1 MOL      0.396241
    137 O20         6.0170    3.8230    0.9310 o         1 MOL     -0.519530
    138 C47         6.2310    3.3720   -2.2200 c3        1 MOL     -0.270984
    139 C48         5.2750    2.4300   -2.9990 c3        1 MOL      0.023035
    140 C49         5.9240    1.0290   -2.7400 c3        1 MOL     -0.025780
    141 H60         7.7050    2.6720   -0.7300 h1        1 MOL      0.092670
    142 H61         5.7800    4.3360   -1.9630 hc        1 MOL      0.103250
    143 H62         7.0110    3.4510   -2.9880 hc        1 MOL      0.103250
    144 H63         4.2680    2.3140   -2.5890 hc        1 MOL      0.034183
    145 H64         5.2570    2.6710   -4.0580 hc        1 MOL      0.034183
    146 H65         5.1890    0.2290   -2.8620 h1        1 MOL     -0.009989
    147 H66         6.7710    0.9420   -3.4260 h1        1 MOL     -0.009989
    148 N13         4.6600    2.1320    0.4930 n         1 MOL     -0.134172
    149 C50         3.8540    2.2700    1.7700 c3        1 MOL     -0.185641
    150 C51         4.5570    1.6190    2.9880 c         1 MOL      0.476270
    151 O21         4.5410    2.1370    4.0950 o         1 MOL     -0.558577
    152 C52         2.5000    1.5940    1.4880 c3        1 MOL      0.123074
    153 C53         1.7230    2.3260    0.3460 c3        1 MOL     -0.160170
    154 C54         0.4650    1.5220   -0.0630 c         1 MOL      0.714373
    155 O22        -0.4790    2.0830   -0.6430 o         1 MOL     -0.749521
    156 O23         0.3680    0.3100    0.1720 o         1 MOL     -0.749521
    157 H67         4.3160    1.3890   -0.1060 hn        1 MOL      0.167071
    158 H68         3.8020    3.3310    2.0150 h1        1 MOL      0.136960
    159 H69         1.8730    1.6480    2.3800 hc        1 MOL      0.013603
    160 H70         2.6880    0.5450    1.2710 hc        1 MOL      0.013603
    161 H71         2.3540    2.4720   -0.5290 hc        1 MOL      0.038164
    162 H72         1.4160    3.3080    0.7120 hc        1 MOL      0.038164
    163 N14         5.2640    0.4960    2.8140 n         1 MOL     -0.064509
    164 C55         6.1830   -0.1530    3.8260 c3        1 MOL     -0.204994
    165 H73         6.5260    0.5970    4.5390 h1        1 MOL      0.082379
    166 H74         5.6440   -0.9380    4.3570 h1        1 MOL      0.082379
    167 H75         7.0430   -0.5850    3.3130 h1        1 MOL      0.082379
    168 H76         5.3330    0.0640    1.8990 hn        1 MOL      0.050435
    169 Ca1        -1.7930   -0.2300   -1.1310 Ca        1 MOL      1.747335
    170 O24        -0.9950   -2.6050   -1.7610 oh        1 MOL     -0.763829
    171 H77        -1.2770   -3.5170   -1.7510 ho        1 MOL      0.348350
    172 H78        -0.5510   -2.5060   -2.6080 ho        1 MOL      0.348350
    173 O25        -2.3290   -0.9830   -3.9210 oh        1 MOL     -0.763829
    174 H79        -2.7950   -1.5590   -4.5270 ho        1 MOL      0.348350
    175 H80        -2.6010   -0.1010   -4.1830 ho        1 MOL      0.348350
@<TRIPOS>BOND
     1    1    2 1   
     2    1    4 1   
     3    1    5 1   
     4    1    6 1   
     5    2    3 2   
     6    2    7 1   
     7    7    8 1   
     8    7   15 1   
     9    8    9 1   
    10    8   11 1   
    11    8   16 1   
    12    9   10 2   
    13    9   19 1   
    14   11   12 1   
    15   11   17 1   
    16   11   18 1   
    17   12   13 1   
    18   12   14 1   
    19   19   20 1   
    20   19   24 1   
    21   20   21 1   
    22   20   23 1   
    23   20   25 1   
    24   21   22 2   
    25   21   29 1   
    26   23   26 1   
    27   23   27 1   
    28   23   28 1   
    29   29   30 1   
    30   29   37 1   
    31   30   31 1   
    32   30   33 1   
    33   30   38 1   
    34   31   32 2   
    35   31   41 1   
    36   33   34 1   
    37   33   39 1   
    38   33   40 1   
    39   34   35 1   
    40   34   36 1   
    41   41   42 1   
    42   41   45 1   
    43   42   43 1   
    44   42   46 1   
    45   42   47 1   
    46   43   44 2   
    47   43   48 1   
    48   48   49 1   
    49   48   56 1   
    50   49   50 1   
    51   49   52 1   
    52   49   57 1   
    53   50   51 2   
    54   50   62 1   
    55   52   53 1   
    56   52   58 1   
    57   52   59 1   
    58   53   54 1   
    59   53   55 2   
    60   54   60 1   
    61   54   61 1   
    62   62   63 1   
    63   62   66 1   
    64   63   64 1   
    65   63   67 1   
    66   63   68 1   
    67   64   65 2   
    68   64   69 1   
    69   69   70 1   
    70   69   76 1   
    71   70   71 1   
    72   70   73 1   
    73   70   77 1   
    74   71   72 2   
    75   71   83 1   
    76   73   74 1   
    77   73   75 1   
    78   73   78 1   
    79   74   80 1   
    80   74   81 1   
    81   74   82 1   
    82   75   79 1   
    83   83   84 1   
    84   83   91 1   
    85   84   85 1   
    86   84   87 1   
    87   84   92 1   
    88   85   86 2   
    89   85  102 1   
    90   87   88 1   
    91   87   89 1   
    92   87   93 1   
    93   88   90 1   
    94   88   94 1   
    95   88   95 1   
    96   89   96 1   
    97   89   97 1   
    98   89   98 1   
    99   90   99 1   
   100   90  100 1   
   101   90  101 1   
   102  102  103 1   
   103  102  110 1   
   104  103  104 1   
   105  103  106 1   
   106  103  111 1   
   107  104  105 2   
   108  104  114 1   
   109  106  107 1   
   110  106  112 1   
   111  106  113 1   
   112  107  108 1   
   113  107  109 1   
   114  114  115 1   
   115  114  125 1   
   116  115  116 1   
   117  115  118 1   
   118  115  126 1   
   119  116  117 2   
   120  116  134 1   
   121  118  119 1   
   122  118  127 1   
   123  118  128 1   
   124  119  120 ar  
   125  119  121 ar  
   126  120  122 ar  
   127  120  129 1   
   128  121  123 ar  
   129  121  130 1   
   130  122  124 ar  
   131  122  131 1   
   132  123  124 ar  
   133  123  132 1   
   134  124  133 1   
   135  134  135 1   
   136  134  140 1   
   137  135  136 1   
   138  135  138 1   
   139  135  141 1   
   140  136  137 2   
   141  136  148 1   
   142  138  139 1   
   143  138  142 1   
   144  138  143 1   
   145  139  140 1   
   146  139  144 1   
   147  139  145 1   
   148  140  146 1   
   149  140  147 1   
   150  148  149 1   
   151  148  157 1   
   152  149  150 1   
   153  149  152 1   
   154  149  158 1   
   155  150  151 2   
   156  150  163 1   
   157  152  153 1   
   158  152  159 1   
   159  152  160 1   
   160  153  154 1   
   161  153  161 1   
   162  153  162 1   
   163  154  155 1   
   164  154  156 1   
   165  163  164 1   
   166  163  168 1   
   167  164  165 1   
   168  164  166 1   
   169  164  167 1   
   170  170  171 1   
   171  170  172 1   
   172  173  174 1   
   173  173  175 1   
@<TRIPOS>SUBSTRUCTURE
     1 MOL         1 TEMP              0 ****  ****    0 ROOT
