@<TRIPOS>MOLECULE
MOL
  183   181     1     0     0
SMALL
resp


@<TRIPOS>ATOM
      1 C1          0.0330    1.8640    5.9090 c3        1 MOL     -0.312606
      2 C2         -0.5110    1.7040    4.5010 c         1 MOL      0.641139
      3 O1          0.1660    2.2800    3.6470 o         1 MOL     -0.522450
      4 H1          1.0500    1.4730    5.9510 hc        1 MOL      0.069819
      5 H2          0.0400    2.9200    6.1790 hc        1 MOL      0.069819
      6 H3         -0.5970    1.3130    6.6080 hc        1 MOL      0.069819
      7 N1         -1.6970    1.2510    4.2350 n         1 MOL     -0.370981
      8 C3         -2.4010    1.2940    2.9250 c3        1 MOL      0.132198
      9 C4         -2.7360    2.7380    2.7130 c         1 MOL      0.330351
     10 O2         -3.6100    3.3100    3.4420 o         1 MOL     -0.583288
     11 C5         -3.6540    0.3810    2.8690 c3        1 MOL     -0.425959
     12 C6         -4.3640    0.6120    1.4630 c         1 MOL      0.760623
     13 O3         -5.6150    0.6510    1.3960 o         1 MOL     -0.622832
     14 O4         -3.6160    0.8460    0.4390 o         1 MOL     -0.622832
     15 H4         -2.2100    0.7460    4.9450 hn        1 MOL      0.237685
     16 H5         -1.7150    0.9250    2.1660 h1        1 MOL      0.001663
     17 H6         -4.4410    0.6660    3.5670 hc        1 MOL      0.117310
     18 H7         -3.3570   -0.6640    2.9340 hc        1 MOL      0.117310
     19 N2         -2.2580    3.3130    1.6420 n         1 MOL     -0.089710
     20 C7         -2.5750    4.5590    0.9890 c3        1 MOL     -0.142153
     21 C8         -3.8100    4.4420    0.0200 c         1 MOL      0.568102
     22 O5         -4.3920    5.5150   -0.2570 o         1 MOL     -0.604410
     23 C9         -1.3270    5.1780    0.3090 c3        1 MOL      0.276444
     24 C10        -0.1030    5.2860    1.3170 c3        1 MOL     -0.025901
     25 C11        -1.5790    6.4980   -0.3480 c3        1 MOL     -0.165098
     26 C12         1.2330    5.5510    0.7240 c3        1 MOL     -0.117714
     27 H8         -1.6510    2.7180    1.1010 hn        1 MOL      0.167739
     28 H9         -2.7250    5.3810    1.6890 h1        1 MOL      0.044027
     29 H10        -1.0070    4.4840   -0.4700 hc        1 MOL      0.027972
     30 H11        -0.0160    4.3790    1.9210 hc        1 MOL     -0.011545
     31 H12        -0.3650    6.0770    2.0230 hc        1 MOL     -0.011545
     32 H13        -2.3170    6.4350   -1.1430 hc        1 MOL      0.020038
     33 H14        -1.8980    7.2670    0.3500 hc        1 MOL      0.020038
     34 H15        -0.7110    6.9830   -0.7960 hc        1 MOL      0.020038
     35 H16         2.0050    5.4770    1.4900 hc        1 MOL      0.024701
     36 H17         1.2990    4.9730   -0.1970 hc        1 MOL      0.024701
     37 H18         1.3160    6.6080    0.4730 hc        1 MOL      0.024701
     38 N3         -4.2430    3.3270   -0.4810 n         1 MOL     -0.501309
     39 C13        -5.2110    3.3330   -1.6040 c3        1 MOL     -0.022531
     40 C14        -6.6770    3.0050   -1.2220 c         1 MOL      0.491144
     41 O6         -7.5080    3.4000   -2.0170 o         1 MOL     -0.586872
     42 C15        -4.7310    2.2880   -2.5520 c3        1 MOL     -0.009796
     43 C16        -3.1700    2.4480   -2.8130 c         1 MOL      0.631624
     44 O7         -2.3910    1.5600   -2.5270 o         1 MOL     -0.667276
     45 O8         -2.7030    3.5500   -3.1890 o         1 MOL     -0.667276
     46 H19        -3.6730    2.5120   -0.3070 hn        1 MOL      0.402613
     47 H20        -5.1930    4.2610   -2.1860 h1        1 MOL      0.111271
     48 H21        -5.1940    2.4420   -3.5230 hc        1 MOL     -0.024379
     49 H22        -4.8780    1.3360   -2.0400 hc        1 MOL     -0.024379
     50 N4         -7.0610    2.2810   -0.1850 n         1 MOL     -0.191612
     51 C17        -8.4390    1.8280    0.0030 c3        1 MOL     -0.221902
     52 C18        -8.4870    0.3670   -0.3810 c         1 MOL      0.657661
     53 O9         -9.6380   -0.0300   -0.6800 o         1 MOL     -0.632218
     54 H23        -6.4360    1.9290    0.5310 hn        1 MOL      0.166908
     55 H24        -9.2010    2.3830   -0.5360 h1        1 MOL      0.097346
     56 H25        -8.5950    1.8940    1.0830 h1        1 MOL      0.097346
     57 N5         -7.4070   -0.4470   -0.3610 n         1 MOL     -0.538286
     58 C19        -7.4580   -1.8270   -0.8630 c3        1 MOL     -0.003584
     59 C20        -7.1310   -2.8600    0.1580 c         1 MOL      0.414884
     60 O10        -7.2410   -4.0330   -0.1480 o         1 MOL     -0.567656
     61 C21        -6.4880   -1.9180   -2.0890 c3        1 MOL     -0.036349
     62 C22        -4.9750   -1.6370   -1.8640 c         1 MOL      0.651161
     63 O11        -4.2040   -1.3880   -2.7850 o         1 MOL     -0.735265
     64 O12        -4.4350   -1.6850   -0.7300 o         1 MOL     -0.735265
     65 H26        -6.5290   -0.0550   -0.0460 hn        1 MOL      0.430706
     66 H27        -8.4820   -2.0390   -1.1890 h1        1 MOL      0.094251
     67 H28        -6.8450   -1.2600   -2.8830 hc        1 MOL      0.029274
     68 H29        -6.6400   -2.8910   -2.5770 hc        1 MOL      0.029274
     69 N6         -6.6500   -2.4370    1.3010 n         1 MOL     -0.097597
     70 C23        -6.2750   -3.2380    2.4160 c3        1 MOL     -0.113207
     71 C24        -5.0700   -4.0980    2.2130 c         1 MOL      0.564458
     72 O13        -4.9200   -5.0500    2.9700 o         1 MOL     -0.609573
     73 H30        -6.5790   -1.4270    1.3430 hn        1 MOL      0.091310
     74 H31        -7.0960   -3.8360    2.8210 h1        1 MOL      0.056276
     75 H32        -5.8660   -2.5200    3.1230 h1        1 MOL      0.056276
     76 N7         -4.3400   -3.8860    1.1210 n         1 MOL     -0.221018
     77 C25        -3.0180   -4.5750    1.0190 c3        1 MOL      0.058046
     78 C26        -1.8420   -3.5160    1.0620 c         1 MOL      0.485639
     79 O14        -2.1080   -2.3230    0.7680 o         1 MOL     -0.647123
     80 C27        -2.9750   -5.4900   -0.1990 c3        1 MOL      0.003432
     81 C28        -3.1350   -4.9550   -1.6380 c3        1 MOL     -0.239336
     82 C29        -1.8790   -4.2940   -2.2530 c         1 MOL      0.561164
     83 N8         -1.2050   -5.0120   -3.1000 n         1 MOL     -0.667853
     84 O15        -1.4520   -3.1210   -2.0420 o         1 MOL     -0.518885
     85 H33        -4.4760   -3.0870    0.5130 hn        1 MOL      0.177174
     86 H34        -2.8030   -5.2050    1.8780 h1        1 MOL      0.037596
     87 H35        -3.7090   -6.2690   -0.0060 hc        1 MOL     -0.000178
     88 H36        -1.9970   -5.9670   -0.2070 hc        1 MOL     -0.000178
     89 H37        -3.9350   -4.2200   -1.7260 hc        1 MOL      0.096182
     90 H38        -3.4580   -5.7100   -2.3610 hc        1 MOL      0.096182
     91 H39        -1.6570   -5.8710   -3.4030 hn        1 MOL      0.326810
     92 H40        -0.4260   -4.5000   -3.4790 hn        1 MOL      0.326810
     93 N9         -0.6240   -3.9330    1.4220 n         1 MOL     -0.304350
     94 C30         0.5180   -2.9910    1.6040 c3        1 MOL     -0.042792
     95 C31         1.6670   -3.3780    0.6310 c         1 MOL      0.465913
     96 O16         2.2330   -4.4760    0.6720 o         1 MOL     -0.565564
     97 C32         0.9610   -2.9980    3.0770 c3        1 MOL      0.320654
     98 C33         1.9530   -1.8300    3.3190 c3        1 MOL     -0.185565
     99 C34        -0.1950   -2.9340    4.0690 c3        1 MOL     -0.185565
    100 H41        -0.5160   -4.9290    1.5410 hn        1 MOL      0.247617
    101 H42         0.1210   -2.0640    1.1810 h1        1 MOL      0.162024
    102 H43         1.4610   -3.9460    3.2810 hc        1 MOL     -0.061479
    103 H44         2.3340   -1.9470    4.3300 hc        1 MOL      0.017754
    104 H45         2.8250   -1.8670    2.6590 hc        1 MOL      0.017754
    105 H46         1.4310   -0.8750    3.2750 hc        1 MOL      0.017754
    106 H47        -0.7570   -3.8660    4.0070 hc        1 MOL      0.017754
    107 H48         0.2780   -2.9080    5.0520 hc        1 MOL      0.017754
    108 H49        -0.7920   -2.0260    3.9810 hc        1 MOL      0.017754
    109 N10         1.9320   -2.3890   -0.2800 n         1 MOL     -0.422261
    110 C35         3.0900   -2.5120   -1.1980 c3        1 MOL      0.211378
    111 C36         4.2940   -1.9290   -0.4220 c         1 MOL      0.381005
    112 O17         4.2820   -1.1730    0.5350 o         1 MOL     -0.289635
    113 C37         2.7470   -1.7180   -2.4330 c3        1 MOL     -0.026899
    114 C38         1.9590   -2.4880   -3.4890 c         1 MOL      0.579887
    115 N11         1.5660   -1.8340   -4.5950 n         1 MOL     -0.725375
    116 O18         1.7600   -3.6970   -3.5280 o         1 MOL     -0.526865
    117 H50         1.4620   -1.5120   -0.1130 hn        1 MOL      0.195184
    118 H51         3.3450   -3.5160   -1.5350 h1        1 MOL      0.037568
    119 H52         3.6690   -1.3810   -2.9150 hc        1 MOL     -0.056118
    120 H53         2.1940   -0.8210   -2.1600 hc        1 MOL     -0.056118
    121 H54         1.7920   -0.8640   -4.8050 hn        1 MOL      0.341495
    122 H55         1.1920   -2.3880   -5.3460 hn        1 MOL      0.341495
    123 N12         5.4790   -2.1380   -0.9620 n         1 MOL     -0.461782
    124 C39         6.7760   -1.6170   -0.5290 c3        1 MOL      0.046733
    125 C40         6.8790   -0.0420   -0.5340 c         1 MOL      0.608710
    126 O19         7.2620    0.5640    0.4300 o         1 MOL     -0.508454
    127 C41         8.0630   -2.1280   -1.2290 c3        1 MOL     -0.003252
    128 C42         9.4060   -1.8590   -0.4710 ca        1 MOL     -0.105935
    129 C43         9.6840   -2.4210    0.7670 ca        1 MOL     -0.090282
    130 C44        10.1220   -0.8020   -0.9720 ca        1 MOL     -0.090282
    131 C45        10.9430   -2.1810    1.3420 ca        1 MOL     -0.239426
    132 C46        11.2010   -0.3440   -0.2180 ca        1 MOL     -0.239426
    133 C47        11.6370   -1.0230    0.9650 ca        1 MOL      0.342021
    134 O20        12.7990   -0.6220    1.6660 oh        1 MOL     -0.544636
    135 H56         5.5340   -2.8300   -1.6970 hn        1 MOL      0.255480
    136 H57         6.7950   -1.9740    0.4950 h1        1 MOL      0.074678
    137 H58         8.1160   -1.6610   -2.2040 hc        1 MOL      0.015392
    138 H59         7.9990   -3.2050   -1.3880 hc        1 MOL      0.015392
    139 H60         9.0230   -3.2080    1.0980 ha        1 MOL      0.127943
    140 H61         9.8180   -0.2760   -1.8650 ha        1 MOL      0.127943
    141 H62        11.2840   -2.7770    2.1680 ha        1 MOL      0.131021
    142 H63        11.8010    0.4240   -0.6730 ha        1 MOL      0.131021
    143 H64        13.2160    0.2050    1.4050 ho        1 MOL      0.383303
    144 N13         6.3960    0.5700   -1.6120 n         1 MOL     -0.507783
    145 C48         6.2920    2.0570   -1.6320 c3        1 MOL      0.070315
    146 C49         5.6110    2.6430   -0.4520 c         1 MOL      0.297627
    147 O21         6.0230    3.7850   -0.0380 o         1 MOL     -0.506371
    148 C50         5.5820    2.5470   -2.8750 c3        1 MOL     -0.178134
    149 C51         4.1380    2.2320   -3.0680 c3        1 MOL     -0.223838
    150 C52         3.6230    2.8320   -4.3570 c         1 MOL      0.699256
    151 O22         3.3030    2.0690   -5.2940 o         1 MOL     -0.722221
    152 O23         3.4150    4.0830   -4.4100 o         1 MOL     -0.722221
    153 H65         6.0670    0.0810   -2.4340 hn        1 MOL      0.326222
    154 H66         7.2790    2.5190   -1.6940 h1        1 MOL      0.057325
    155 H67         6.0080    2.0940   -3.7770 hc        1 MOL      0.066540
    156 H68         5.7110    3.6190   -2.9430 hc        1 MOL      0.066540
    157 H69         3.5150    2.8140   -2.3900 hc        1 MOL      0.078250
    158 H70         3.9220    1.1810   -2.9190 hc        1 MOL      0.078250
    159 N14         4.5270    2.0180    0.0290 n         1 MOL     -0.117835
    160 C53         3.7890    2.2520    1.2210 c3        1 MOL     -0.035016
    161 C54         4.5860    1.9220    2.5490 c         1 MOL      0.392614
    162 O24         4.5660    2.7340    3.5070 o         1 MOL     -0.553138
    163 C55         2.4510    1.4880    1.2730 c3        1 MOL      0.409143
    164 C56         1.6590    1.7460   -0.0150 c3        1 MOL     -0.045667
    165 C57         0.2720    1.0550   -0.0260 c         1 MOL      0.753258
    166 O25        -0.8190    1.7010    0.0320 o         1 MOL     -0.761277
    167 O26         0.1730   -0.1920   -0.1530 o         1 MOL     -0.761277
    168 H71         4.2430    1.2050   -0.5100 hn        1 MOL      0.225694
    169 H72         3.5990    3.3230    1.2830 h1        1 MOL      0.052031
    170 H73         1.9640    1.8390    2.1780 hc        1 MOL     -0.108529
    171 H74         2.6600    0.4280    1.4150 hc        1 MOL     -0.108529
    172 H75         2.1690    1.2380   -0.8340 hc        1 MOL      0.003008
    173 H76         1.6590    2.8100   -0.2180 hc        1 MOL      0.003008
    174 N15         5.2980    0.7870    2.6270 n         1 MOL     -0.034703
    175 C58         6.1050    0.2800    3.7370 c3        1 MOL     -0.242635
    176 H77         7.0600   -0.0830    3.3560 h1        1 MOL      0.086110
    177 H78         6.2820    1.0810    4.4550 h1        1 MOL      0.086110
    178 H79         5.5760   -0.5380    4.2270 h1        1 MOL      0.086110
    179 H80         5.1660    0.1620    1.8470 hn        1 MOL      0.051052
    180 Ca1        -2.1310   -0.4620   -1.0590 Ca        1 MOL      1.752716
    181 O27        -0.4790   -0.5540   -3.2330 oh        1 MOL     -0.908316
    182 H81        -0.0090    0.1030   -3.7340 ho        1 MOL      0.439432
    183 H82        -0.0330   -1.3760   -3.4290 ho        1 MOL      0.439432
@<TRIPOS>BOND
     1    1    2 1   
     2    1    4 1   
     3    1    5 1   
     4    1    6 1   
     5    2    3 2   
     6    2    7 1   
     7    7    8 1   
     8    7   15 1   
     9    8    9 1   
    10    8   11 1   
    11    8   16 1   
    12    9   10 2   
    13    9   19 1   
    14   11   12 1   
    15   11   17 1   
    16   11   18 1   
    17   12   13 1   
    18   12   14 1   
    19   19   20 1   
    20   19   27 1   
    21   20   21 1   
    22   20   23 1   
    23   20   28 1   
    24   21   22 2   
    25   21   38 1   
    26   23   24 1   
    27   23   25 1   
    28   23   29 1   
    29   24   26 1   
    30   24   30 1   
    31   24   31 1   
    32   25   32 1   
    33   25   33 1   
    34   25   34 1   
    35   26   35 1   
    36   26   36 1   
    37   26   37 1   
    38   38   39 1   
    39   38   46 1   
    40   39   40 1   
    41   39   42 1   
    42   39   47 1   
    43   40   41 2   
    44   40   50 1   
    45   42   43 1   
    46   42   48 1   
    47   42   49 1   
    48   43   44 1   
    49   43   45 1   
    50   50   51 1   
    51   50   54 1   
    52   51   52 1   
    53   51   55 1   
    54   51   56 1   
    55   52   53 2   
    56   52   57 1   
    57   57   58 1   
    58   57   65 1   
    59   58   59 1   
    60   58   61 1   
    61   58   66 1   
    62   59   60 2   
    63   59   69 1   
    64   61   62 1   
    65   61   67 1   
    66   61   68 1   
    67   62   63 1   
    68   62   64 1   
    69   69   70 1   
    70   69   73 1   
    71   70   71 1   
    72   70   74 1   
    73   70   75 1   
    74   71   72 2   
    75   71   76 1   
    76   76   77 1   
    77   76   85 1   
    78   77   78 1   
    79   77   80 1   
    80   77   86 1   
    81   78   79 2   
    82   78   93 1   
    83   80   81 1   
    84   80   87 1   
    85   80   88 1   
    86   81   82 1   
    87   81   89 1   
    88   81   90 1   
    89   82   83 1   
    90   82   84 2   
    91   83   91 1   
    92   83   92 1   
    93   93   94 1   
    94   93  100 1   
    95   94   95 1   
    96   94   97 1   
    97   94  101 1   
    98   95   96 2   
    99   95  109 1   
   100   97   98 1   
   101   97   99 1   
   102   97  102 1   
   103   98  103 1   
   104   98  104 1   
   105   98  105 1   
   106   99  106 1   
   107   99  107 1   
   108   99  108 1   
   109  109  110 1   
   110  109  117 1   
   111  110  111 1   
   112  110  113 1   
   113  110  118 1   
   114  111  112 2   
   115  111  123 1   
   116  113  114 1   
   117  113  119 1   
   118  113  120 1   
   119  114  115 1   
   120  114  116 2   
   121  115  121 1   
   122  115  122 1   
   123  123  124 1   
   124  123  135 1   
   125  124  125 1   
   126  124  127 1   
   127  124  136 1   
   128  125  126 2   
   129  125  144 1   
   130  127  128 1   
   131  127  137 1   
   132  127  138 1   
   133  128  129 ar  
   134  128  130 ar  
   135  129  131 ar  
   136  129  139 1   
   137  130  132 ar  
   138  130  140 1   
   139  131  133 ar  
   140  131  141 1   
   141  132  133 ar  
   142  132  142 1   
   143  133  134 1   
   144  134  143 1   
   145  144  145 1   
   146  144  153 1   
   147  145  146 1   
   148  145  148 1   
   149  145  154 1   
   150  146  147 2   
   151  146  159 1   
   152  148  149 1   
   153  148  155 1   
   154  148  156 1   
   155  149  150 1   
   156  149  157 1   
   157  149  158 1   
   158  150  151 1   
   159  150  152 1   
   160  159  160 1   
   161  159  168 1   
   162  160  161 1   
   163  160  163 1   
   164  160  169 1   
   165  161  162 2   
   166  161  174 1   
   167  163  164 1   
   168  163  170 1   
   169  163  171 1   
   170  164  165 1   
   171  164  172 1   
   172  164  173 1   
   173  165  166 1   
   174  165  167 1   
   175  174  175 1   
   176  174  179 1   
   177  175  176 1   
   178  175  177 1   
   179  175  178 1   
   180  181  182 1   
   181  181  183 1   
@<TRIPOS>SUBSTRUCTURE
     1 MOL         1 TEMP              0 ****  ****    0 ROOT
