@<TRIPOS>MOLECULE
MOL
  189   185     1     0     0
SMALL
resp


@<TRIPOS>ATOM
      1 C1          0.3810    2.5270    5.4130 c3        1 MOL     -0.233746
      2 C2         -0.2830    2.3910    4.0140 c         1 MOL      0.714730
      3 O1          0.2790    2.8840    3.0070 o         1 MOL     -0.669821
      4 H1          1.3110    3.0880    5.3200 hc        1 MOL      0.058559
      5 H2         -0.2940    3.0530    6.0870 hc        1 MOL      0.058559
      6 H3          0.5940    1.5350    5.8120 hc        1 MOL      0.058559
      7 N1         -1.5050    1.8710    3.9420 n         1 MOL     -0.619893
      8 C3         -2.0610    1.4940    2.6070 c3        1 MOL      0.209511
      9 C4         -2.6320    2.8120    2.0660 c         1 MOL      0.386963
     10 O2         -3.7640    3.1780    2.3020 o         1 MOL     -0.514997
     11 C5         -3.1550    0.3980    2.8860 c3        1 MOL     -0.180606
     12 C6         -3.8420   -0.1520    1.6640 c         1 MOL      0.680684
     13 O3         -4.9000   -0.7900    1.8550 o         1 MOL     -0.649135
     14 O4         -3.4100    0.1880    0.5130 o         1 MOL     -0.649135
     15 H4         -2.0270    1.7220    4.7830 hn        1 MOL      0.332746
     16 H5         -1.3350    1.0330    1.9410 h1        1 MOL     -0.004667
     17 H6         -3.8760    0.8130    3.5900 hc        1 MOL      0.050098
     18 H7         -2.7290   -0.4290    3.4540 hc        1 MOL      0.050098
     19 N2         -1.8380    3.4510    1.2360 n         1 MOL     -0.069069
     20 C7         -2.0020    4.7260    0.6690 c3        1 MOL     -0.367707
     21 C8         -2.9870    4.8930   -0.5120 c         1 MOL      0.651984
     22 O5         -3.4760    5.9830   -0.7230 o         1 MOL     -0.627574
     23 C9         -0.5870    5.2170    0.3430 c3        1 MOL     -0.159461
     24 C10        -0.1960    6.6700    0.2900 c3        1 MOL     -0.096590
     25 C11        -0.6910    7.3350    1.5720 c3        1 MOL      0.108097
     26 C12        -0.0130    8.7110    1.6770 c3        1 MOL     -0.076063
     27 N3         -1.0010    9.8450    1.7950 n4        1 MOL     -0.359976
     28 H8         -0.9900    2.9890    0.9450 hn        1 MOL      0.384663
     29 H9         -2.3720    5.3540    1.4780 h1        1 MOL      0.131959
     30 H10        -0.3710    4.6880   -0.5870 hc        1 MOL      0.095527
     31 H11         0.1110    4.7370    1.0220 hc        1 MOL      0.095527
     32 H12        -0.5690    7.1550   -0.6190 hc        1 MOL      0.048467
     33 H13         0.8560    6.9220    0.1970 hc        1 MOL      0.048467
     34 H14        -0.6080    6.6570    2.4240 hc        1 MOL      0.041343
     35 H15        -1.7800    7.4440    1.5790 hc        1 MOL      0.041343
     36 H16         0.6370    8.9220    0.8200 hx        1 MOL      0.097217
     37 H17         0.5050    8.7780    2.6320 hx        1 MOL      0.097217
     38 H18        -0.5930   10.7620    1.8270 hn        1 MOL      0.329885
     39 H19        -1.4670    9.9720    0.9090 hn        1 MOL      0.329885
     40 H20        -1.5450    9.7200    2.6420 hn        1 MOL      0.329885
     41 N4         -3.4000    3.8220   -1.1870 n         1 MOL     -0.229309
     42 C13        -4.4460    3.8500   -2.2710 c3        1 MOL     -0.001918
     43 C14        -5.7170    3.0870   -1.7530 c         1 MOL      0.310522
     44 O6         -6.7470    3.0860   -2.4170 o         1 MOL     -0.490773
     45 C15        -3.9260    3.2230   -3.5460 c3        1 MOL     -0.307691
     46 C16        -3.1220    1.9330   -3.4180 c         1 MOL      0.855557
     47 O7         -3.2510    1.1190   -2.5060 o         1 MOL     -0.729273
     48 O8         -2.3310    1.8290   -4.3540 o         1 MOL     -0.729273
     49 H21        -2.9380    2.9660   -0.9100 hn        1 MOL      0.127300
     50 H22        -4.6310    4.9030   -2.4750 h1        1 MOL      0.119930
     51 H23        -3.2760    4.0390   -3.8920 hc        1 MOL      0.088431
     52 H24        -4.7780    3.1290   -4.2220 hc        1 MOL      0.088431
     53 N5         -5.6410    2.4220   -0.5950 n         1 MOL     -0.012030
     54 C17        -6.6290    1.5990    0.0980 c3        1 MOL     -0.055427
     55 C18        -7.2010    0.4770   -0.7560 c         1 MOL      0.380015
     56 O9         -8.4290    0.3590   -0.9140 o         1 MOL     -0.557351
     57 H25        -4.7120    2.3390   -0.1960 hn        1 MOL     -0.047789
     58 H26        -7.4210    2.2680    0.4510 h1        1 MOL      0.075788
     59 H27        -6.0920    1.1910    0.9570 h1        1 MOL      0.075788
     60 N6         -6.3360   -0.3440   -1.3540 n         1 MOL     -0.099049
     61 C19        -6.8190   -1.5670   -2.0690 c3        1 MOL      0.062054
     62 C20        -6.8980   -2.7190   -0.9920 c         1 MOL      0.349287
     63 O10        -7.2840   -3.8470   -1.3890 o         1 MOL     -0.548041
     64 C21        -5.8100   -1.9380   -3.1800 c3        1 MOL     -0.359392
     65 C22        -4.3100   -1.8200   -2.8450 c         1 MOL      0.769586
     66 O11        -3.4420   -1.8290   -3.7700 o         1 MOL     -0.660418
     67 O12        -3.9230   -2.0380   -1.6660 o         1 MOL     -0.660418
     68 H28        -5.3390   -0.2820   -1.2120 hn        1 MOL      0.123621
     69 H29        -7.8630   -1.5390   -2.4030 h1        1 MOL      0.108516
     70 H30        -5.9310   -1.1310   -3.9110 hc        1 MOL      0.102668
     71 H31        -6.0210   -2.9440   -3.5510 hc        1 MOL      0.102668
     72 N7         -6.5880   -2.4840    0.2480 n         1 MOL     -0.124448
     73 C23        -6.6330   -3.4280    1.3480 c3        1 MOL     -0.250244
     74 C24        -5.3290   -4.2160    1.4340 c         1 MOL      0.616705
     75 O13        -5.2300   -5.1400    2.2720 o         1 MOL     -0.585734
     76 H32        -6.3100   -1.5660    0.5700 hn        1 MOL      0.218015
     77 H33        -7.4290   -4.1470    1.1950 h1        1 MOL      0.122013
     78 H34        -6.6990   -2.9690    2.3310 h1        1 MOL      0.122013
     79 N8         -4.3360   -3.9710    0.5350 n         1 MOL     -0.378022
     80 C25        -2.9910   -4.5750    0.7420 c3        1 MOL      0.003303
     81 C26        -1.8540   -3.5790    0.9140 c         1 MOL      0.738872
     82 O14        -1.9380   -2.4300    0.4210 o         1 MOL     -0.708669
     83 C27        -2.5470   -5.5100   -0.3940 c3        1 MOL      0.438670
     84 C28        -3.3180   -6.8170   -0.5760 c3        1 MOL     -0.478723
     85 O15        -2.6880   -4.7830   -1.5990 oh        1 MOL     -0.650324
     86 H35        -4.3740   -3.1590   -0.0730 hn        1 MOL      0.222202
     87 H36        -3.0050   -5.1560    1.6650 h1        1 MOL      0.045680
     88 H37        -1.4920   -5.7320   -0.2120 h1        1 MOL     -0.023312
     89 H38        -3.2650   -4.0170   -1.5190 ho        1 MOL      0.439990
     90 H39        -3.0730   -7.4380    0.2830 hc        1 MOL      0.125377
     91 H40        -4.3680   -6.5290   -0.6290 hc        1 MOL      0.125377
     92 H41        -3.1150   -7.2930   -1.5350 hc        1 MOL      0.125377
     93 N9         -0.6890   -3.9680    1.4920 n         1 MOL     -0.768606
     94 C29         0.4330   -3.0850    1.6770 c3        1 MOL      0.128861
     95 C30         1.6510   -3.6280    0.9160 c         1 MOL      0.591744
     96 O16         2.1670   -4.7040    1.2900 o         1 MOL     -0.569419
     97 C31         0.7490   -2.9750    3.2560 c3        1 MOL      0.115739
     98 C32        -0.4050   -2.3000    3.9700 c3        1 MOL      0.270666
     99 C33         2.0640   -2.2150    3.5170 c3        1 MOL     -0.283387
    100 C34        -0.3460   -2.2720    5.4560 c3        1 MOL     -0.414933
    101 H42        -0.5990   -4.8760    1.9370 hn        1 MOL      0.336362
    102 H43         0.2840   -2.0710    1.3180 h1        1 MOL      0.057550
    103 H44         0.8790   -3.9800    3.6550 hc        1 MOL     -0.012801
    104 H45        -1.3520   -2.7600    3.7050 hc        1 MOL     -0.018358
    105 H46        -0.3870   -1.2450    3.6660 hc        1 MOL     -0.018358
    106 H47         2.4710   -2.4390    4.5050 hc        1 MOL      0.051708
    107 H48         2.8480   -2.4590    2.7910 hc        1 MOL      0.051708
    108 H49         1.8550   -1.1360    3.5080 hc        1 MOL      0.051708
    109 H50        -1.2770   -1.7960    5.7700 hc        1 MOL      0.087792
    110 H51        -0.3250   -3.2960    5.8360 hc        1 MOL      0.087792
    111 H52         0.6180   -1.8390    5.7220 hc        1 MOL      0.087792
    112 N10         2.2390   -2.7870    0.0280 n         1 MOL     -0.335227
    113 C35         3.4980   -3.0460   -0.6530 c3        1 MOL      0.000248
    114 C36         4.7780   -2.9410    0.1590 c         1 MOL      0.382104
    115 O17         4.8120   -2.2520    1.2060 o         1 MOL     -0.346674
    116 C37         3.5510   -2.1870   -1.9940 c3        1 MOL      0.035774
    117 C38         2.3880   -2.4660   -2.9530 c3        1 MOL     -0.269839
    118 O18         3.4090   -0.7640   -1.8560 oh        1 MOL     -0.296363
    119 H53         1.7510   -1.9230   -0.1500 hn        1 MOL      0.292860
    120 H54         3.4210   -4.1020   -0.9230 h1        1 MOL      0.084444
    121 H55         4.4880   -2.3980   -2.5120 h1        1 MOL      0.051143
    122 H56         3.1510   -0.3720   -2.6940 ho        1 MOL      0.343228
    123 H57         1.4920   -2.1630   -2.4100 hc        1 MOL      0.076733
    124 H58         2.5710   -1.9280   -3.8880 hc        1 MOL      0.076733
    125 H59         2.3210   -3.5280   -3.1680 hc        1 MOL      0.076733
    126 N11         5.8310   -3.5810   -0.2950 n         1 MOL     -0.296067
    127 C39         7.2060   -3.2060    0.1100 c3        1 MOL     -0.188883
    128 C40         7.4520   -1.7160    0.2230 c         1 MOL      0.459886
    129 O19         8.1390   -1.3420    1.1520 o         1 MOL     -0.496234
    130 C41         8.2080   -3.7640   -0.8960 c3        1 MOL      0.273973
    131 C42         8.5470   -5.2230   -0.5670 c3        1 MOL     -0.372502
    132 O20         7.7560   -3.5890   -2.2640 oh        1 MOL     -0.642176
    133 H60         5.7220   -4.3050   -1.0010 hn        1 MOL      0.288674
    134 H61         7.3440   -3.6170    1.1110 h1        1 MOL      0.174853
    135 H62         9.1070   -3.1590   -0.9040 h1        1 MOL      0.050211
    136 H63         8.5320   -3.7280   -2.8040 ho        1 MOL      0.419599
    137 H64         8.8250   -5.3260    0.4780 hc        1 MOL      0.111515
    138 H65         7.6040   -5.7660   -0.5670 hc        1 MOL      0.111515
    139 H66         9.1780   -5.7230   -1.3000 hc        1 MOL      0.111515
    140 N12         6.9350   -0.8650   -0.6660 n         1 MOL     -0.301036
    141 C43         7.2420    0.5740   -0.6550 c3        1 MOL     -0.041480
    142 C44         6.2600    1.2950    0.2200 c         1 MOL      0.383313
    143 O21         6.6080    2.3000    0.8630 o         1 MOL     -0.550178
    144 C45         7.2980    1.1000   -2.0890 c3        1 MOL      0.143737
    145 C46         7.9180    2.4700   -2.1920 c3        1 MOL      0.032131
    146 C47         8.5580    2.7050   -3.4910 c3        1 MOL      0.057962
    147 C48         8.1430    4.1210   -4.0280 c3        1 MOL     -0.023134
    148 N13         8.8410    4.5380   -5.2980 n4        1 MOL     -0.175831
    149 H67         6.2700   -1.1410   -1.3790 hn        1 MOL      0.227494
    150 H68         8.2100    0.8040   -0.2300 h1        1 MOL      0.109790
    151 H69         6.2850    1.0510   -2.4800 hc        1 MOL     -0.044923
    152 H70         7.8950    0.4480   -2.7240 hc        1 MOL     -0.044923
    153 H71         8.7190    2.5620   -1.4630 hc        1 MOL      0.014037
    154 H72         7.1300    3.1720   -1.9010 hc        1 MOL      0.014037
    155 H73         8.1490    2.0850   -4.2790 hc        1 MOL      0.007916
    156 H74         9.6390    2.5460   -3.4590 hc        1 MOL      0.007916
    157 H75         8.3790    4.7660   -3.1860 hx        1 MOL      0.082601
    158 H76         7.0660    4.1130   -4.1940 hx        1 MOL      0.082601
    159 H77         9.8290    4.3100   -5.3430 hn        1 MOL      0.242693
    160 H78         8.5420    4.0650   -6.1460 hn        1 MOL      0.242693
    161 H79         8.7070    5.5070   -5.5480 hn        1 MOL      0.242693
    162 N14         5.0050    0.9140    0.2770 n         1 MOL     -0.004534
    163 C49         4.0480    1.5480    1.2910 c3        1 MOL     -0.118533
    164 C50         4.4130    1.3550    2.7440 c         1 MOL      0.409240
    165 O22         4.1880    2.1580    3.6540 o         1 MOL     -0.544082
    166 C51         2.6570    0.9430    1.1100 c3        1 MOL      0.148783
    167 C52         1.8730    1.6670    0.0530 c3        1 MOL     -0.269184
    168 C53         0.5590    0.9650   -0.1730 c         1 MOL      0.723302
    169 O23         0.4990   -0.3040   -0.0640 o         1 MOL     -0.763646
    170 O24        -0.4440    1.5620   -0.6280 o         1 MOL     -0.763646
    171 H80         4.7100    0.0640   -0.1710 hn        1 MOL     -0.144408
    172 H81         4.0000    2.6290    1.1670 h1        1 MOL      0.109175
    173 H82         2.0850    1.0310    2.0280 hc        1 MOL      0.024217
    174 H83         2.7950   -0.0970    0.8040 hc        1 MOL      0.024217
    175 H84         2.4160    1.5210   -0.8800 hc        1 MOL      0.037045
    176 H85         1.6800    2.7110    0.2970 hc        1 MOL      0.037045
    177 N15         5.0850    0.2510    3.0520 n         1 MOL      0.000302
    178 C54         5.7110   -0.0390    4.3330 c3        1 MOL     -0.321366
    179 H86         6.4210    0.7510    4.5780 h1        1 MOL      0.113290
    180 H87         4.9460   -0.0910    5.1080 h1        1 MOL      0.113290
    181 H88         6.2360   -0.9920    4.2750 h1        1 MOL      0.113290
    182 H89         5.0990   -0.4440    2.3270 hn        1 MOL      0.141436
    183 Ca1        -1.7710   -0.5880   -1.4000 Ca        1 MOL      1.791498
    184 O25        -0.9400   -3.0060   -2.4990 oh        1 MOL     -0.856941
    185 H90        -0.5080   -3.1810   -3.3290 ho        1 MOL      0.396512
    186 H91        -1.2800   -3.8580   -2.2180 ho        1 MOL      0.396512
    187 O26        -0.6180   -0.1230   -3.7330 oh        1 MOL     -0.856941
    188 H92        -1.2390    0.4570   -4.1690 ho        1 MOL      0.396512
    189 H93        -0.1770   -0.5780   -4.4420 ho        1 MOL      0.396512
@<TRIPOS>BOND
     1    1    2 1   
     2    1    4 1   
     3    1    5 1   
     4    1    6 1   
     5    2    3 2   
     6    2    7 1   
     7    7    8 1   
     8    7   15 1   
     9    8    9 1   
    10    8   11 1   
    11    8   16 1   
    12    9   10 2   
    13    9   19 1   
    14   11   12 1   
    15   11   17 1   
    16   11   18 1   
    17   12   13 1   
    18   12   14 1   
    19   19   20 1   
    20   19   28 1   
    21   20   21 1   
    22   20   23 1   
    23   20   29 1   
    24   21   22 2   
    25   21   41 1   
    26   23   24 1   
    27   23   30 1   
    28   23   31 1   
    29   24   25 1   
    30   24   32 1   
    31   24   33 1   
    32   25   26 1   
    33   25   34 1   
    34   25   35 1   
    35   26   27 1   
    36   26   36 1   
    37   26   37 1   
    38   27   38 1   
    39   27   39 1   
    40   27   40 1   
    41   41   42 1   
    42   41   49 1   
    43   42   43 1   
    44   42   45 1   
    45   42   50 1   
    46   43   44 2   
    47   43   53 1   
    48   45   46 1   
    49   45   51 1   
    50   45   52 1   
    51   46   47 1   
    52   46   48 1   
    53   53   54 1   
    54   53   57 1   
    55   54   55 1   
    56   54   58 1   
    57   54   59 1   
    58   55   56 2   
    59   55   60 1   
    60   60   61 1   
    61   60   68 1   
    62   61   62 1   
    63   61   64 1   
    64   61   69 1   
    65   62   63 2   
    66   62   72 1   
    67   64   65 1   
    68   64   70 1   
    69   64   71 1   
    70   65   66 1   
    71   65   67 1   
    72   72   73 1   
    73   72   76 1   
    74   73   74 1   
    75   73   77 1   
    76   73   78 1   
    77   74   75 2   
    78   74   79 1   
    79   79   80 1   
    80   79   86 1   
    81   80   81 1   
    82   80   83 1   
    83   80   87 1   
    84   81   82 2   
    85   81   93 1   
    86   83   84 1   
    87   83   85 1   
    88   83   88 1   
    89   84   90 1   
    90   84   91 1   
    91   84   92 1   
    92   85   89 1   
    93   93   94 1   
    94   93  101 1   
    95   94   95 1   
    96   94   97 1   
    97   94  102 1   
    98   95   96 2   
    99   95  112 1   
   100   97   98 1   
   101   97   99 1   
   102   97  103 1   
   103   98  100 1   
   104   98  104 1   
   105   98  105 1   
   106   99  106 1   
   107   99  107 1   
   108   99  108 1   
   109  100  109 1   
   110  100  110 1   
   111  100  111 1   
   112  112  113 1   
   113  112  119 1   
   114  113  114 1   
   115  113  116 1   
   116  113  120 1   
   117  114  115 2   
   118  114  126 1   
   119  116  117 1   
   120  116  118 1   
   121  116  121 1   
   122  117  123 1   
   123  117  124 1   
   124  117  125 1   
   125  118  122 1   
   126  126  127 1   
   127  126  133 1   
   128  127  128 1   
   129  127  130 1   
   130  127  134 1   
   131  128  129 2   
   132  128  140 1   
   133  130  131 1   
   134  130  132 1   
   135  130  135 1   
   136  131  137 1   
   137  131  138 1   
   138  131  139 1   
   139  132  136 1   
   140  140  141 1   
   141  140  149 1   
   142  141  142 1   
   143  141  144 1   
   144  141  150 1   
   145  142  143 2   
   146  142  162 1   
   147  144  145 1   
   148  144  151 1   
   149  144  152 1   
   150  145  146 1   
   151  145  153 1   
   152  145  154 1   
   153  146  147 1   
   154  146  155 1   
   155  146  156 1   
   156  147  148 1   
   157  147  157 1   
   158  147  158 1   
   159  148  159 1   
   160  148  160 1   
   161  148  161 1   
   162  162  163 1   
   163  162  171 1   
   164  163  164 1   
   165  163  166 1   
   166  163  172 1   
   167  164  165 2   
   168  164  177 1   
   169  166  167 1   
   170  166  173 1   
   171  166  174 1   
   172  167  168 1   
   173  167  175 1   
   174  167  176 1   
   175  168  169 1   
   176  168  170 1   
   177  177  178 1   
   178  177  182 1   
   179  178  179 1   
   180  178  180 1   
   181  178  181 1   
   182  184  185 1   
   183  184  186 1   
   184  187  188 1   
   185  187  189 1   
@<TRIPOS>SUBSTRUCTURE
     1 MOL         1 TEMP              0 ****  ****    0 ROOT
