@<TRIPOS>MOLECULE
MOL
  189   185     1     0     0
SMALL
resp


@<TRIPOS>ATOM
      1 C1          0.5880   -4.4120    5.8280 c3        1 MOL     -0.357674
      2 C2          1.1500   -3.7480    4.5500 c         1 MOL      0.742346
      3 O1          1.0940   -2.5210    4.4930 o         1 MOL     -0.663690
      4 H1          1.3270   -5.1030    6.2330 hc        1 MOL      0.090132
      5 H2          0.3650   -3.6450    6.5680 hc        1 MOL      0.090132
      6 H3         -0.3240   -4.9580    5.5830 hc        1 MOL      0.090132
      7 N1          1.5550   -4.4420    3.5700 n         1 MOL     -0.544500
      8 C3          2.1290   -3.9600    2.3210 c3        1 MOL      0.273578
      9 C4          1.8050   -4.8690    1.1410 c         1 MOL      0.420528
     10 O2          1.9970   -6.1140    1.2830 o         1 MOL     -0.593079
     11 C5          3.6010   -3.8290    2.5220 c3        1 MOL     -0.250673
     12 C6          4.2680   -3.3500    1.2380 c         1 MOL      0.666496
     13 O3          5.3510   -3.9040    0.8990 o         1 MOL     -0.647365
     14 O4          3.7450   -2.4270    0.5330 o         1 MOL     -0.647365
     15 H4          1.3910   -5.4330    3.5990 hn        1 MOL      0.279087
     16 H5          1.7120   -3.0040    1.9880 h1        1 MOL      0.096314
     17 H6          4.0070   -4.7540    2.9420 hc        1 MOL      0.045260
     18 H7          3.8370   -3.0500    3.2440 hc        1 MOL      0.045260
     19 N2          1.5100   -4.4150   -0.0650 n         1 MOL     -0.080167
     20 C7          1.2450   -5.1410   -1.3330 c3        1 MOL      0.008791
     21 C8          2.3600   -4.9770   -2.3540 c         1 MOL      0.573163
     22 O5          2.4890   -5.8410   -3.2430 o         1 MOL     -0.594591
     23 C9         -0.1710   -4.7230   -1.8400 c3        1 MOL      0.334296
     24 C10        -1.2800   -5.0250   -0.8740 c3        1 MOL     -0.047059
     25 C11        -0.5060   -5.4710   -3.1090 c3        1 MOL     -0.332554
     26 C12        -2.7380   -4.6050   -1.1030 c3        1 MOL     -0.234357
     27 H8          1.1850   -3.4610   -0.0970 hn        1 MOL     -0.208300
     28 H9          1.2660   -6.2090   -1.1160 h1        1 MOL      0.028497
     29 H10        -0.1260   -3.6890   -2.1760 hc        1 MOL      0.010656
     30 H11        -0.9230   -4.6490    0.0890 hc        1 MOL      0.005768
     31 H12        -1.3330   -6.0720   -0.5890 hc        1 MOL      0.005768
     32 H13        -1.5900   -5.5320   -3.1230 hc        1 MOL      0.050925
     33 H14        -0.2640   -4.8740   -3.9830 hc        1 MOL      0.050925
     34 H15         0.0240   -6.4290   -3.1220 hc        1 MOL      0.050925
     35 H16        -2.8330   -3.5140   -1.1710 hc        1 MOL      0.073359
     36 H17        -3.2500   -5.0660   -1.9470 hc        1 MOL      0.073359
     37 H18        -3.2730   -4.9880   -0.2470 hc        1 MOL      0.073359
     38 N3          3.0860   -3.8850   -2.4320 n         1 MOL     -0.521042
     39 C13         3.8110   -3.3810   -3.5640 c3        1 MOL      0.196928
     40 C14         5.2400   -3.0180   -3.3290 c         1 MOL      0.307702
     41 O6          5.9880   -2.8700   -4.2710 o         1 MOL     -0.532927
     42 C15         3.0370   -2.2070   -4.1600 c3        1 MOL     -0.343906
     43 C16         2.4450   -1.1320   -3.2780 c         1 MOL      0.796514
     44 O7          2.8020   -1.0150   -2.1030 o         1 MOL     -0.729288
     45 O8          1.6590   -0.2650   -3.7630 o         1 MOL     -0.729288
     46 H19         2.9440   -3.1990   -1.7000 hn        1 MOL      0.424648
     47 H20         3.8840   -4.1540   -4.3340 h1        1 MOL      0.076964
     48 H21         2.1970   -2.6680   -4.6850 hc        1 MOL      0.082931
     49 H22         3.6000   -1.6700   -4.9250 hc        1 MOL      0.082931
     50 N4          5.6800   -2.8650   -2.0490 n         1 MOL     -0.000143
     51 C17         7.0980   -2.6580   -1.5860 c3        1 MOL     -0.098414
     52 C18         7.5210   -1.2280   -1.7800 c         1 MOL      0.484023
     53 O9          8.6470   -0.9680   -2.0720 o         1 MOL     -0.570150
     54 H23         5.1140   -2.9840   -1.2290 hn        1 MOL     -0.000273
     55 H24         7.7120   -3.2610   -2.2590 h1        1 MOL      0.068902
     56 H25         7.2440   -2.9830   -0.5530 h1        1 MOL      0.068902
     57 N5          6.6000   -0.2100   -1.6450 n         1 MOL     -0.111343
     58 C19         6.8520    1.2020   -1.9190 c3        1 MOL     -0.082867
     59 C20         7.2520    2.0460   -0.7030 c         1 MOL      0.383221
     60 O10         7.8700    3.0580   -0.9180 o         1 MOL     -0.517290
     61 C21         5.7500    1.9270   -2.6660 c3        1 MOL     -0.341394
     62 C22         4.4060    1.9850   -1.8870 c         1 MOL      0.851729
     63 O11         4.2710    1.4980   -0.7640 o         1 MOL     -0.701074
     64 O12         3.5010    2.4060   -2.6190 o         1 MOL     -0.701074
     65 H26         5.6500   -0.5170   -1.4830 hn        1 MOL      0.110828
     66 H27         7.6520    1.2120   -2.6530 h1        1 MOL      0.119887
     67 H28         5.6910    1.4220   -3.6320 hc        1 MOL      0.101404
     68 H29         5.9760    2.9700   -2.8600 hc        1 MOL      0.101404
     69 N6          7.0100    1.5580    0.4830 n         1 MOL     -0.199770
     70 C23         7.0400    2.4440    1.6830 c3        1 MOL     -0.210979
     71 C24         5.9900    3.6020    1.7910 c         1 MOL      0.460311
     72 O13         6.2850    4.5790    2.5170 o         1 MOL     -0.587655
     73 H30         6.7390    0.5810    0.5130 hn        1 MOL      0.167447
     74 H31         8.0320    2.8960    1.7270 h1        1 MOL      0.109367
     75 H32         6.8650    1.9780    2.6460 h1        1 MOL      0.109367
     76 N7          4.8690    3.5240    1.1210 n         1 MOL     -0.078286
     77 C25         3.5980    4.2420    1.2990 c3        1 MOL     -0.020258
     78 C26         2.3630    3.3410    1.5250 c         1 MOL      0.186057
     79 O14         2.3860    2.1190    1.3720 o         1 MOL     -0.308484
     80 C27         3.2970    5.0630    0.0680 c3        1 MOL      0.051885
     81 C28         4.3080    6.2380   -0.0850 c3        1 MOL     -0.271550
     82 C29         3.6630    7.2640   -0.9380 c         1 MOL      0.737422
     83 N8          3.7970    7.3030   -2.2770 n         1 MOL     -0.875712
     84 O15         3.0370    8.1410   -0.3990 o         1 MOL     -0.603577
     85 H33         4.8440    2.7840    0.4440 hn        1 MOL      0.146317
     86 H34         3.8570    4.8520    2.1640 h1        1 MOL      0.074289
     87 H35         2.2580    5.3910    0.0980 hc        1 MOL      0.020058
     88 H36         3.3360    4.4970   -0.8590 hc        1 MOL      0.020058
     89 H37         5.2460    5.9130   -0.5190 hc        1 MOL      0.077880
     90 H38         4.4960    6.7180    0.8740 hc        1 MOL      0.077880
     91 H39         4.3790    6.6070   -2.7080 hn        1 MOL      0.382519
     92 H40         3.1410    7.8790   -2.7790 hn        1 MOL      0.382519
     93 N9          1.1870    3.9270    1.9280 n         1 MOL     -0.199413
     94 C30         0.0010    3.0890    2.3520 c3        1 MOL     -0.246165
     95 C31        -1.1120    3.5050    1.3910 c         1 MOL      0.508916
     96 O16        -1.5210    4.6560    1.4180 o         1 MOL     -0.558740
     97 C32        -0.2350    3.3940    3.8530 c3        1 MOL      0.216628
     98 C33        -1.6240    2.8970    4.3010 c3        1 MOL     -0.227367
     99 C34         0.8270    2.5690    4.5880 c3        1 MOL     -0.227367
    100 H41         1.1850    4.9210    2.0920 hn        1 MOL      0.242169
    101 H42         0.1940    2.0230    2.2330 h1        1 MOL      0.191181
    102 H43        -0.1800    4.4290    4.1890 hc        1 MOL      0.018669
    103 H44        -2.4650    3.5600    4.0680 hc        1 MOL      0.042460
    104 H45        -1.7650    1.9290    3.8260 hc        1 MOL      0.042460
    105 H46        -1.6380    2.7760    5.3800 hc        1 MOL      0.042460
    106 H47         0.7580    1.4870    4.4850 hc        1 MOL      0.042460
    107 H48         1.8470    2.8840    4.3370 hc        1 MOL      0.042460
    108 H49         0.6660    2.9210    5.6030 hc        1 MOL      0.042460
    109 N10        -1.4640    2.5390    0.5030 n         1 MOL     -0.335629
    110 C35        -2.6800    2.6010   -0.3410 c3        1 MOL      0.196278
    111 C36        -3.9490    2.1410    0.4510 c         1 MOL      0.233775
    112 O17        -3.8900    1.4290    1.4730 o         1 MOL     -0.315909
    113 C37        -2.4310    1.5540   -1.4360 c3        1 MOL     -0.298268
    114 C38        -3.5410    1.1640   -2.3770 c         1 MOL      0.691512
    115 N11        -3.5370    1.6680   -3.6040 n         1 MOL     -0.806659
    116 O18        -4.4130    0.3670   -2.0310 o         1 MOL     -0.538402
    117 H50        -0.9330    1.6750    0.5470 hn        1 MOL      0.210004
    118 H51        -2.8260    3.5910   -0.7600 h1        1 MOL      0.030249
    119 H52        -2.1390    0.6740   -0.8640 hc        1 MOL      0.116787
    120 H53        -1.6830    2.0570   -2.0560 hc        1 MOL      0.116787
    121 H54        -2.6980    2.1620   -3.8830 hn        1 MOL      0.375117
    122 H55        -4.2930    1.4060   -4.2230 hn        1 MOL      0.375117
    123 N12        -5.1030    2.5160   -0.0490 n         1 MOL     -0.261463
    124 C39        -6.4580    2.3600    0.6450 c3        1 MOL      0.044285
    125 C40        -6.9050    0.8770    0.7560 c         1 MOL      0.303008
    126 O19        -7.7860    0.5950    1.4870 o         1 MOL     -0.515450
    127 C41        -7.5240    3.2220   -0.1520 c3        1 MOL     -0.166918
    128 C42        -7.7350    3.0960   -1.6170 ca        1 MOL      0.058528
    129 C43        -7.0730    3.9520   -2.4790 ca        1 MOL     -0.116172
    130 C44        -8.5980    2.1570   -2.1580 ca        1 MOL     -0.116172
    131 C45        -7.2040    3.8410   -3.8890 ca        1 MOL     -0.380465
    132 C46        -8.6040    1.8700   -3.5090 ca        1 MOL     -0.380465
    133 C47        -7.9690    2.7310   -4.3760 ca        1 MOL      0.536204
    134 O20        -8.1780    2.6210   -5.6780 oh        1 MOL     -0.609260
    135 H56        -5.0800    2.8460   -1.0020 hn        1 MOL      0.147865
    136 H57        -6.3400    2.7530    1.6560 h1        1 MOL      0.109748
    137 H58        -7.3160    4.2770    0.0470 hc        1 MOL      0.059871
    138 H59        -8.4910    3.0340    0.3060 hc        1 MOL      0.059871
    139 H60        -6.3800    4.7000   -2.1320 ha        1 MOL      0.147662
    140 H61        -9.1720    1.5930   -1.4340 ha        1 MOL      0.147662
    141 H62        -6.7560    4.5150   -4.6080 ha        1 MOL      0.158974
    142 H63        -9.3520    1.1620   -3.8360 ha        1 MOL      0.158974
    143 H64        -8.6240    1.8120   -5.9180 ho        1 MOL      0.426252
    144 N13        -6.2620   -0.0770    0.0410 n         1 MOL     -0.009252
    145 C48        -6.4540   -1.5150    0.2850 c3        1 MOL     -0.242799
    146 C49        -5.4200   -2.0310    1.3390 c         1 MOL      0.482298
    147 O21        -5.5890   -3.1410    1.7980 o         1 MOL     -0.513974
    148 C50        -6.4480   -2.3570   -1.0320 c3        1 MOL      0.213269
    149 C51        -7.6000   -2.2650   -1.9580 c3        1 MOL     -0.209248
    150 C52        -8.9100   -2.7540   -1.3340 c         1 MOL      0.750608
    151 O22       -10.0070   -2.2740   -1.7980 o         1 MOL     -0.747691
    152 O23        -8.9490   -3.5260   -0.3570 o         1 MOL     -0.747691
    153 H65        -5.5690    0.1690   -0.6610 hn        1 MOL      0.184965
    154 H66        -7.4470   -1.7200    0.6690 h1        1 MOL      0.197949
    155 H67        -6.4170   -3.3910   -0.7130 hc        1 MOL     -0.041889
    156 H68        -5.4540   -2.1960   -1.4650 hc        1 MOL     -0.041889
    157 H69        -7.5360   -2.8720   -2.8680 hc        1 MOL     -0.008621
    158 H70        -7.6110   -1.2350   -2.3140 hc        1 MOL     -0.008621
    159 N14        -4.3750   -1.2770    1.7660 n         1 MOL     -0.356312
    160 C53        -3.3580   -1.6310    2.8410 c3        1 MOL      0.138684
    161 C54        -3.7760   -1.0700    4.1990 c         1 MOL      0.428764
    162 O24        -3.8530   -1.8570    5.1700 o         1 MOL     -0.559724
    163 C55        -1.9160   -1.1150    2.6050 c3        1 MOL     -0.203909
    164 C56        -1.3240   -1.9320    1.4290 c3        1 MOL      0.202662
    165 C57        -0.1930   -1.2080    0.6640 c         1 MOL      0.552649
    166 O25         0.4440   -1.8660   -0.2260 o         1 MOL     -0.594758
    167 O26         0.0220    0.0470    0.7950 o         1 MOL     -0.594758
    168 H71        -4.0600   -0.5120    1.1930 hn        1 MOL      0.177023
    169 H72        -3.3120   -2.7120    2.9510 h1        1 MOL      0.030436
    170 H73        -1.2470   -1.2890    3.4490 hc        1 MOL      0.070411
    171 H74        -1.9810   -0.0530    2.3800 hc        1 MOL      0.070411
    172 H75        -2.1020   -2.1980    0.7240 hc        1 MOL     -0.025386
    173 H76        -0.9760   -2.8160    1.9700 hc        1 MOL     -0.025386
    174 N15        -4.1390    0.2160    4.2800 n         1 MOL     -0.184068
    175 C58        -4.6230    0.9690    5.4360 c3        1 MOL     -0.036584
    176 H77        -5.6180    1.3580    5.2250 h1        1 MOL      0.041001
    177 H78        -4.6660    0.3120    6.3050 h1        1 MOL      0.041001
    178 H79        -3.9450    1.7980    5.6410 h1        1 MOL      0.041001
    179 H80        -4.1460    0.7600    3.4350 hn        1 MOL      0.125857
    180 Ca1         2.5830   -0.0900    0.2720 Ca        1 MOL      1.755852
    181 O27         2.0440   -0.5210    3.0380 oh        1 MOL     -0.992600
    182 H81         2.7090   -0.1120    3.5860 ho        1 MOL      0.447620
    183 H82         1.5690   -1.1120    3.6280 ho        1 MOL      0.447620
    184 O28         4.6520   -0.0080    1.8890 oh        1 MOL     -0.992600
    185 H83         4.7110    0.0570    2.8410 ho        1 MOL      0.447620
    186 H84         5.3700   -0.5850    1.6400 ho        1 MOL      0.447620
    187 O29         1.1460    1.2900   -1.6060 oh        1 MOL     -0.992600
    188 H85         1.0400    0.8020   -2.4180 ho        1 MOL      0.447620
    189 H86         1.8710    1.8920   -1.7870 ho        1 MOL      0.447620
@<TRIPOS>BOND
     1    1    2 1   
     2    1    4 1   
     3    1    5 1   
     4    1    6 1   
     5    2    3 2   
     6    2    7 1   
     7    7    8 1   
     8    7   15 1   
     9    8    9 1   
    10    8   11 1   
    11    8   16 1   
    12    9   10 2   
    13    9   19 1   
    14   11   12 1   
    15   11   17 1   
    16   11   18 1   
    17   12   13 1   
    18   12   14 1   
    19   19   20 1   
    20   19   27 1   
    21   20   21 1   
    22   20   23 1   
    23   20   28 1   
    24   21   22 2   
    25   21   38 1   
    26   23   24 1   
    27   23   25 1   
    28   23   29 1   
    29   24   26 1   
    30   24   30 1   
    31   24   31 1   
    32   25   32 1   
    33   25   33 1   
    34   25   34 1   
    35   26   35 1   
    36   26   36 1   
    37   26   37 1   
    38   38   39 1   
    39   38   46 1   
    40   39   40 1   
    41   39   42 1   
    42   39   47 1   
    43   40   41 2   
    44   40   50 1   
    45   42   43 1   
    46   42   48 1   
    47   42   49 1   
    48   43   44 1   
    49   43   45 1   
    50   50   51 1   
    51   50   54 1   
    52   51   52 1   
    53   51   55 1   
    54   51   56 1   
    55   52   53 2   
    56   52   57 1   
    57   57   58 1   
    58   57   65 1   
    59   58   59 1   
    60   58   61 1   
    61   58   66 1   
    62   59   60 2   
    63   59   69 1   
    64   61   62 1   
    65   61   67 1   
    66   61   68 1   
    67   62   63 1   
    68   62   64 1   
    69   69   70 1   
    70   69   73 1   
    71   70   71 1   
    72   70   74 1   
    73   70   75 1   
    74   71   72 2   
    75   71   76 1   
    76   76   77 1   
    77   76   85 1   
    78   77   78 1   
    79   77   80 1   
    80   77   86 1   
    81   78   79 2   
    82   78   93 1   
    83   80   81 1   
    84   80   87 1   
    85   80   88 1   
    86   81   82 1   
    87   81   89 1   
    88   81   90 1   
    89   82   83 1   
    90   82   84 2   
    91   83   91 1   
    92   83   92 1   
    93   93   94 1   
    94   93  100 1   
    95   94   95 1   
    96   94   97 1   
    97   94  101 1   
    98   95   96 2   
    99   95  109 1   
   100   97   98 1   
   101   97   99 1   
   102   97  102 1   
   103   98  103 1   
   104   98  104 1   
   105   98  105 1   
   106   99  106 1   
   107   99  107 1   
   108   99  108 1   
   109  109  110 1   
   110  109  117 1   
   111  110  111 1   
   112  110  113 1   
   113  110  118 1   
   114  111  112 2   
   115  111  123 1   
   116  113  114 1   
   117  113  119 1   
   118  113  120 1   
   119  114  115 1   
   120  114  116 2   
   121  115  121 1   
   122  115  122 1   
   123  123  124 1   
   124  123  135 1   
   125  124  125 1   
   126  124  127 1   
   127  124  136 1   
   128  125  126 2   
   129  125  144 1   
   130  127  128 1   
   131  127  137 1   
   132  127  138 1   
   133  128  129 ar  
   134  128  130 ar  
   135  129  131 ar  
   136  129  139 1   
   137  130  132 ar  
   138  130  140 1   
   139  131  133 ar  
   140  131  141 1   
   141  132  133 ar  
   142  132  142 1   
   143  133  134 1   
   144  134  143 1   
   145  144  145 1   
   146  144  153 1   
   147  145  146 1   
   148  145  148 1   
   149  145  154 1   
   150  146  147 2   
   151  146  159 1   
   152  148  149 1   
   153  148  155 1   
   154  148  156 1   
   155  149  150 1   
   156  149  157 1   
   157  149  158 1   
   158  150  151 1   
   159  150  152 1   
   160  159  160 1   
   161  159  168 1   
   162  160  161 1   
   163  160  163 1   
   164  160  169 1   
   165  161  162 2   
   166  161  174 1   
   167  163  164 1   
   168  163  170 1   
   169  163  171 1   
   170  164  165 1   
   171  164  172 1   
   172  164  173 1   
   173  165  166 1   
   174  165  167 1   
   175  174  175 1   
   176  174  179 1   
   177  175  176 1   
   178  175  177 1   
   179  175  178 1   
   180  181  182 1   
   181  181  183 1   
   182  184  185 1   
   183  184  186 1   
   184  187  188 1   
   185  187  189 1   
@<TRIPOS>SUBSTRUCTURE
     1 MOL         1 TEMP              0 ****  ****    0 ROOT
