@<TRIPOS>MOLECULE
MOL
  189   185     1     0     0
SMALL
resp


@<TRIPOS>ATOM
      1 C1          0.7100    3.7380   -3.8260 c3        1 MOL     -0.115301
      2 C2          1.2910    3.0130   -2.6010 c         1 MOL      0.633114
      3 O1          0.8150    3.2760   -1.4780 o         1 MOL     -0.562844
      4 H1         -0.3170    4.0350   -3.6180 hc        1 MOL      0.026988
      5 H2          1.3080    4.6230   -4.0430 hc        1 MOL      0.026988
      6 H3          0.7250    3.0680   -4.6870 hc        1 MOL      0.026988
      7 N1          2.3090    2.2080   -2.7990 n         1 MOL     -0.552268
      8 C3          3.0320    1.5480   -1.7070 c3        1 MOL      0.065746
      9 C4          4.1330    2.4860   -1.1620 c         1 MOL      0.682590
     10 O2          5.2730    2.3260   -1.3890 o         1 MOL     -0.489468
     11 C5          3.6460    0.2550   -2.2490 c3        1 MOL     -0.039875
     12 C6          4.2710   -0.6890   -1.2800 c         1 MOL      0.512290
     13 O3          3.6090   -0.9480   -0.2580 o         1 MOL     -0.603400
     14 O4          5.4280   -1.1580   -1.5420 o         1 MOL     -0.603400
     15 H4          2.7060    2.2040   -3.7350 hn        1 MOL      0.302218
     16 H5          2.2500    1.3790   -0.9710 h1        1 MOL      0.076026
     17 H6          4.4580    0.5330   -2.9280 hc        1 MOL      0.011432
     18 H7          2.9320   -0.2940   -2.8770 hc        1 MOL      0.011432
     19 N2          3.6550    3.6220   -0.5740 n         1 MOL     -0.600293
     20 C7          4.5370    4.6110    0.0690 c3        1 MOL     -0.122480
     21 C8          5.0020    4.2940    1.4960 c         1 MOL      0.524175
     22 O5          5.6950    4.9740    2.1360 o         1 MOL     -0.549129
     23 C9          3.9590    6.0150    0.0170 c3        1 MOL     -0.035302
     24 C10         3.8170    6.5490   -1.4000 c3        1 MOL     -0.048791
     25 C11         3.4800    8.0330   -1.5530 c3        1 MOL     -0.002920
     26 C12         4.6700    8.9160   -1.0730 c3        1 MOL      0.070357
     27 N3          4.7000   10.3510   -1.5440 n4        1 MOL     -0.442878
     28 H8          2.6490    3.6450   -0.4330 hn        1 MOL      0.351514
     29 H9          5.4780    4.5830   -0.5010 h1        1 MOL      0.121063
     30 H10         4.5720    6.6800    0.6380 hc        1 MOL      0.053238
     31 H11         2.9850    6.0820    0.5080 hc        1 MOL      0.053238
     32 H12         2.9390    6.0390   -1.8020 hc        1 MOL      0.046720
     33 H13         4.7050    6.3020   -1.9890 hc        1 MOL      0.046720
     34 H14         2.5720    8.3100   -1.0180 hc        1 MOL      0.034091
     35 H15         3.2610    8.1050   -2.6290 hc        1 MOL      0.034091
     36 H16         5.5860    8.4390   -1.4130 hx        1 MOL      0.073887
     37 H17         4.6310    8.9520    0.0150 hx        1 MOL      0.073887
     38 H18         5.2380   10.4440   -2.3910 hn        1 MOL      0.346688
     39 H19         3.7750   10.7590   -1.5850 hn        1 MOL      0.346688
     40 H20         5.1220   10.9490   -0.8390 hn        1 MOL      0.346688
     41 N4          4.5420    3.1700    2.0730 n         1 MOL     -0.325133
     42 C13         5.0750    2.5650    3.3090 c3        1 MOL      0.180669
     43 C14         6.0260    1.4050    2.9390 c         1 MOL      0.308940
     44 O6          6.7030    0.8850    3.8050 o         1 MOL     -0.490319
     45 C15         3.8990    2.0920    4.2180 c3        1 MOL     -0.316701
     46 C16         2.8300    1.2300    3.4980 c         1 MOL      0.847709
     47 O7          3.1030    0.3920    2.6350 o         1 MOL     -0.718155
     48 O8          1.6330    1.3250    3.8930 o         1 MOL     -0.718155
     49 H21         3.8920    2.6160    1.5200 hn        1 MOL      0.188913
     50 H22         5.7200    3.2680    3.8400 h1        1 MOL      0.072027
     51 H23         3.4540    3.0390    4.5490 hc        1 MOL      0.070410
     52 H24         4.3980    1.5900    5.0400 hc        1 MOL      0.070410
     53 N5          6.1370    1.1030    1.6550 n         1 MOL     -0.018180
     54 C17         7.1350    0.2330    1.0300 c3        1 MOL     -0.284441
     55 C18         7.1220   -1.1570    1.6800 c         1 MOL      0.624590
     56 O9          8.0850   -1.5610    2.3360 o         1 MOL     -0.571632
     57 H25         5.5400    1.5650    0.9860 hn        1 MOL      0.084788
     58 H26         8.0490    0.7820    1.2470 h1        1 MOL      0.119760
     59 H27         7.0190    0.2060   -0.0540 h1        1 MOL      0.119760
     60 N6          6.1140   -2.0600    1.4230 n         1 MOL     -0.268425
     61 C19         6.0830   -3.4750    1.7300 c3        1 MOL      0.109128
     62 C20         5.9000   -4.3480    0.5210 c         1 MOL      0.252034
     63 O10         6.1430   -5.5750    0.4800 o         1 MOL     -0.533182
     64 C21         4.9200   -3.8070    2.8010 c3        1 MOL     -0.240737
     65 C22         3.5200   -3.4090    2.3500 c         1 MOL      0.868660
     66 O11         2.7550   -2.7320    3.0990 o         1 MOL     -0.795536
     67 O12         3.1270   -3.7050    1.1850 o         1 MOL     -0.795536
     68 H28         5.3870   -1.7630    0.7820 hn        1 MOL      0.071899
     69 H29         6.9990   -3.8280    2.2280 h1        1 MOL      0.106991
     70 H30         5.1990   -3.3950    3.7780 hc        1 MOL      0.069015
     71 H31         4.8550   -4.8600    3.0510 hc        1 MOL      0.069015
     72 N7          5.6410   -3.8650   -0.6890 n         1 MOL     -0.036334
     73 C23         5.3950   -4.4320   -2.0170 c3        1 MOL     -0.056672
     74 C24         4.0290   -4.9750   -2.2970 c         1 MOL      0.520510
     75 O13         3.9300   -5.7890   -3.2360 o         1 MOL     -0.558177
     76 H32         5.6180   -2.8560   -0.7410 hn        1 MOL      0.105132
     77 H33         6.1690   -5.1570   -2.2660 h1        1 MOL      0.060261
     78 H34         5.6060   -3.6650   -2.7620 h1        1 MOL      0.060261
     79 N8          3.0170   -4.4620   -1.5510 n         1 MOL     -0.262614
     80 C25         1.6310   -4.8330   -1.7040 c3        1 MOL     -0.397575
     81 C26         0.6950   -3.6000   -1.6260 c         1 MOL      0.798129
     82 O14         1.0540   -2.8410   -0.7150 o         1 MOL     -0.716200
     83 C27         1.2220   -5.8820   -0.7400 c3        1 MOL      0.665228
     84 C28         1.7610   -7.2390   -1.2230 c3        1 MOL     -0.445409
     85 O15         1.7090   -5.7290    0.5550 oh        1 MOL     -0.706335
     86 H35         3.1660   -3.7780   -0.8190 hn        1 MOL      0.340462
     87 H36         1.5800   -5.2460   -2.7080 h1        1 MOL      0.095610
     88 H37         0.1320   -5.9860   -0.7450 h1        1 MOL     -0.078825
     89 H38         2.2980   -4.9670    0.6070 ho        1 MOL      0.470486
     90 H39         1.8090   -7.3510   -2.3100 hc        1 MOL      0.097897
     91 H40         2.7820   -7.2200   -0.8370 hc        1 MOL      0.097897
     92 H41         1.1690   -8.0440   -0.7800 hc        1 MOL      0.097897
     93 N9         -0.3670   -3.4410   -2.4590 n         1 MOL     -0.696176
     94 C29        -1.1770   -2.2270   -2.6410 c3        1 MOL      0.003860
     95 C30        -2.6650   -2.5850   -2.2870 c         1 MOL      0.579853
     96 O16        -3.2270   -3.4600   -2.9240 o         1 MOL     -0.575737
     97 C31        -1.0840   -1.7860   -4.1310 c3        1 MOL      0.179272
     98 C32         0.3470   -1.2090   -4.4410 c3        1 MOL      0.278948
     99 C33        -2.1940   -0.6570   -4.3250 c3        1 MOL     -0.468875
    100 C34         0.5370   -0.8520   -5.9230 c3        1 MOL     -0.213471
    101 H42        -0.4930   -4.1900   -3.1160 hn        1 MOL      0.343684
    102 H43        -0.8270   -1.4770   -1.9380 h1        1 MOL      0.059394
    103 H44        -1.1920   -2.6340   -4.7990 hc        1 MOL      0.003598
    104 H45         1.1250   -1.9190   -4.1670 hc        1 MOL     -0.041021
    105 H46         0.5170   -0.3530   -3.7860 hc        1 MOL     -0.041021
    106 H47        -2.1250   -0.2880   -5.3460 hc        1 MOL      0.096890
    107 H48        -3.2090   -1.0230   -4.1260 hc        1 MOL      0.096890
    108 H49        -1.8870    0.1200   -3.6260 hc        1 MOL      0.096890
    109 H50         1.5500   -0.4450   -5.9340 hc        1 MOL      0.033695
    110 H51         0.5420   -1.7440   -6.5500 hc        1 MOL      0.033695
    111 H52        -0.1340   -0.0550   -6.2260 hc        1 MOL      0.033695
    112 N10        -3.1530   -1.8990   -1.2980 n         1 MOL     -0.209053
    113 C35        -4.4530   -2.0510   -0.7220 c3        1 MOL     -0.205209
    114 C36        -5.4950   -1.0600   -1.1920 c         1 MOL      0.432341
    115 O17        -5.2460    0.0010   -1.7840 o         1 MOL     -0.383615
    116 C37        -4.3820   -1.9400    0.8780 c3        1 MOL      0.395153
    117 C38        -3.5810   -3.1640    1.3650 c3        1 MOL     -0.509358
    118 O18        -3.7640   -0.7750    1.2820 oh        1 MOL     -0.598659
    119 H53        -2.5240   -1.2260   -0.8670 hn        1 MOL      0.373022
    120 H54        -4.8590   -3.0310   -0.9880 h1        1 MOL      0.091124
    121 H55        -5.3700   -1.8850    1.3170 h1        1 MOL     -0.054236
    122 H56        -2.8750   -0.6970    0.9150 ho        1 MOL      0.371584
    123 H57        -2.5280   -3.1810    1.0940 hc        1 MOL      0.130504
    124 H58        -3.7280   -3.2080    2.4390 hc        1 MOL      0.130504
    125 H59        -4.0030   -4.0920    0.9760 hc        1 MOL      0.130504
    126 N11        -6.6990   -1.5520   -0.9550 n         1 MOL     -0.399852
    127 C39        -7.9600   -0.6900   -0.9060 c3        1 MOL      0.069748
    128 C40        -7.7490    0.6280   -0.2310 c         1 MOL      0.094698
    129 O19        -8.2590    1.5860   -0.7650 o         1 MOL     -0.498788
    130 C41        -9.2160   -1.2610   -0.2240 c3        1 MOL      0.238603
    131 C42        -9.9040   -2.4000   -0.9930 c3        1 MOL     -0.627797
    132 O20        -8.7220   -1.7450    1.0450 oh        1 MOL     -0.660929
    133 H60        -6.8050   -2.5090   -0.6440 hn        1 MOL      0.296850
    134 H61        -8.2000   -0.4910   -1.9480 h1        1 MOL      0.113766
    135 H62        -9.9480   -0.4750   -0.0070 h1        1 MOL      0.068602
    136 H63        -9.4480   -1.8530    1.6670 ho        1 MOL      0.401316
    137 H64        -9.2860   -3.2980   -1.0180 hc        1 MOL      0.186791
    138 H65       -10.8480   -2.5460   -0.4680 hc        1 MOL      0.186791
    139 H66       -10.0490   -2.1670   -2.0410 hc        1 MOL      0.186791
    140 N12        -7.0970    0.7390    0.8920 n         1 MOL      0.185802
    141 C43        -6.8050    2.0180    1.5280 c3        1 MOL     -0.016840
    142 C44        -5.8150    2.8580    0.7790 c         1 MOL      0.281214
    143 O21        -5.7670    4.0430    0.9610 o         1 MOL     -0.525624
    144 C45        -6.3520    1.5940    2.9520 c3        1 MOL     -0.215594
    145 C46        -7.2470    0.6180    3.7550 c3        1 MOL      0.130182
    146 C47        -8.7170    0.8520    3.7190 c3        1 MOL     -0.131983
    147 C48        -9.4630   -0.2090    4.6010 c3        1 MOL      0.001934
    148 N13       -10.8490    0.2410    4.8650 n4        1 MOL     -0.226555
    149 H67        -6.7190   -0.1380    1.2240 hn        1 MOL      0.214130
    150 H68        -7.6850    2.6430    1.6730 h1        1 MOL      0.047671
    151 H69        -6.1800    2.5400    3.4750 hc        1 MOL      0.078158
    152 H70        -5.3610    1.1450    2.8680 hc        1 MOL      0.078158
    153 H71        -6.9090    0.7130    4.7900 hc        1 MOL     -0.008991
    154 H72        -7.1020   -0.4150    3.4430 hc        1 MOL     -0.008991
    155 H73        -9.1110    0.9220    2.7010 hc        1 MOL      0.064418
    156 H74        -8.8310    1.8520    4.1300 hc        1 MOL      0.064418
    157 H75        -8.9910   -0.3080    5.5770 hx        1 MOL      0.089561
    158 H76        -9.5480   -1.2270    4.2280 hx        1 MOL      0.089561
    159 H77       -11.1890   -0.1100    5.7540 hn        1 MOL      0.257447
    160 H78       -10.8340    1.2420    4.7480 hn        1 MOL      0.257447
    161 H79       -11.5220   -0.0250    4.1620 hn        1 MOL      0.257447
    162 N14        -4.9540    2.2610    0.0540 n         1 MOL      0.215123
    163 C49        -3.8230    2.9040   -0.6370 c3        1 MOL     -0.171759
    164 C50        -4.1660    3.4260   -2.0300 c         1 MOL      0.458271
    165 O22        -3.8390    4.5640   -2.3890 o         1 MOL     -0.540133
    166 C51        -2.7110    1.8470   -0.6640 c3        1 MOL      0.305561
    167 C52        -1.9880    1.7830    0.6570 c3        1 MOL     -0.298122
    168 C53        -0.9370    0.6530    0.7150 c         1 MOL      0.860754
    169 O23         0.2840    0.8390    0.9060 o         1 MOL     -0.775075
    170 O24        -1.3020   -0.5460    0.5190 o         1 MOL     -0.775075
    171 H80        -4.9490    1.2440    0.1050 hn        1 MOL     -0.024670
    172 H81        -3.4990    3.7920   -0.0940 h1        1 MOL      0.104651
    173 H82        -2.0090    2.0890   -1.4540 hc        1 MOL     -0.094240
    174 H83        -3.1270    0.8940   -0.9710 hc        1 MOL     -0.094240
    175 H84        -2.6820    1.6800    1.4830 hc        1 MOL      0.053650
    176 H85        -1.5200    2.7700    0.6790 hc        1 MOL      0.053650
    177 N15        -5.0230    2.6750   -2.6950 n         1 MOL     -0.221618
    178 C54        -5.8350    3.1020   -3.8090 c3        1 MOL     -0.231912
    179 H86        -6.8710    3.2010   -3.4850 h1        1 MOL      0.099618
    180 H87        -5.4760    4.0650   -4.1730 h1        1 MOL      0.099618
    181 H88        -5.7750    2.3650   -4.6090 h1        1 MOL      0.099618
    182 H89        -5.2930    1.7940   -2.2740 hn        1 MOL      0.204200
    183 Ca1         1.4890   -1.3370    1.3840 Ca        1 MOL      1.756422
    184 O25         0.0020   -0.8080    3.5450 oh        1 MOL     -0.777117
    185 H90        -0.5620   -1.1440    4.2370 ho        1 MOL      0.377747
    186 H91         0.3800   -0.0100    3.9010 ho        1 MOL      0.377747
    187 O26        -0.1520   -3.3530    2.1260 oh        1 MOL     -0.777117
    188 H92        -0.5710   -3.2300    2.9720 ho        1 MOL      0.377747
    189 H93         0.1830   -4.2510    2.1530 ho        1 MOL      0.377747
@<TRIPOS>BOND
     1    1    2 1   
     2    1    4 1   
     3    1    5 1   
     4    1    6 1   
     5    2    3 2   
     6    2    7 1   
     7    7    8 1   
     8    7   15 1   
     9    8    9 1   
    10    8   11 1   
    11    8   16 1   
    12    9   10 2   
    13    9   19 1   
    14   11   12 1   
    15   11   17 1   
    16   11   18 1   
    17   12   13 1   
    18   12   14 1   
    19   19   20 1   
    20   19   28 1   
    21   20   21 1   
    22   20   23 1   
    23   20   29 1   
    24   21   22 2   
    25   21   41 1   
    26   23   24 1   
    27   23   30 1   
    28   23   31 1   
    29   24   25 1   
    30   24   32 1   
    31   24   33 1   
    32   25   26 1   
    33   25   34 1   
    34   25   35 1   
    35   26   27 1   
    36   26   36 1   
    37   26   37 1   
    38   27   38 1   
    39   27   39 1   
    40   27   40 1   
    41   41   42 1   
    42   41   49 1   
    43   42   43 1   
    44   42   45 1   
    45   42   50 1   
    46   43   44 2   
    47   43   53 1   
    48   45   46 1   
    49   45   51 1   
    50   45   52 1   
    51   46   47 1   
    52   46   48 1   
    53   53   54 1   
    54   53   57 1   
    55   54   55 1   
    56   54   58 1   
    57   54   59 1   
    58   55   56 2   
    59   55   60 1   
    60   60   61 1   
    61   60   68 1   
    62   61   62 1   
    63   61   64 1   
    64   61   69 1   
    65   62   63 2   
    66   62   72 1   
    67   64   65 1   
    68   64   70 1   
    69   64   71 1   
    70   65   66 1   
    71   65   67 1   
    72   72   73 1   
    73   72   76 1   
    74   73   74 1   
    75   73   77 1   
    76   73   78 1   
    77   74   75 2   
    78   74   79 1   
    79   79   80 1   
    80   79   86 1   
    81   80   81 1   
    82   80   83 1   
    83   80   87 1   
    84   81   82 2   
    85   81   93 1   
    86   83   84 1   
    87   83   85 1   
    88   83   88 1   
    89   84   90 1   
    90   84   91 1   
    91   84   92 1   
    92   85   89 1   
    93   93   94 1   
    94   93  101 1   
    95   94   95 1   
    96   94   97 1   
    97   94  102 1   
    98   95   96 2   
    99   95  112 1   
   100   97   98 1   
   101   97   99 1   
   102   97  103 1   
   103   98  100 1   
   104   98  104 1   
   105   98  105 1   
   106   99  106 1   
   107   99  107 1   
   108   99  108 1   
   109  100  109 1   
   110  100  110 1   
   111  100  111 1   
   112  112  113 1   
   113  112  119 1   
   114  113  114 1   
   115  113  116 1   
   116  113  120 1   
   117  114  115 2   
   118  114  126 1   
   119  116  117 1   
   120  116  118 1   
   121  116  121 1   
   122  117  123 1   
   123  117  124 1   
   124  117  125 1   
   125  118  122 1   
   126  126  127 1   
   127  126  133 1   
   128  127  128 1   
   129  127  130 1   
   130  127  134 1   
   131  128  129 2   
   132  128  140 1   
   133  130  131 1   
   134  130  132 1   
   135  130  135 1   
   136  131  137 1   
   137  131  138 1   
   138  131  139 1   
   139  132  136 1   
   140  140  141 1   
   141  140  149 1   
   142  141  142 1   
   143  141  144 1   
   144  141  150 1   
   145  142  143 2   
   146  142  162 1   
   147  144  145 1   
   148  144  151 1   
   149  144  152 1   
   150  145  146 1   
   151  145  153 1   
   152  145  154 1   
   153  146  147 1   
   154  146  155 1   
   155  146  156 1   
   156  147  148 1   
   157  147  157 1   
   158  147  158 1   
   159  148  159 1   
   160  148  160 1   
   161  148  161 1   
   162  162  163 1   
   163  162  171 1   
   164  163  164 1   
   165  163  166 1   
   166  163  172 1   
   167  164  165 2   
   168  164  177 1   
   169  166  167 1   
   170  166  173 1   
   171  166  174 1   
   172  167  168 1   
   173  167  175 1   
   174  167  176 1   
   175  168  169 1   
   176  168  170 1   
   177  177  178 1   
   178  177  182 1   
   179  178  179 1   
   180  178  180 1   
   181  178  181 1   
   182  184  185 1   
   183  184  186 1   
   184  187  188 1   
   185  187  189 1   
@<TRIPOS>SUBSTRUCTURE
     1 MOL         1 TEMP              0 ****  ****    0 ROOT
