@<TRIPOS>MOLECULE
MOL
  179   176     1     0     0
SMALL
resp


@<TRIPOS>ATOM
      1 C1          1.4800    3.6990    4.7770 c3        1 MOL     -0.474466
      2 C2          0.9570    3.2160    3.4210 c         1 MOL      0.684304
      3 O1          1.6560    3.1830    2.4330 o         1 MOL     -0.572997
      4 H1          1.1150    4.7080    4.9670 hc        1 MOL      0.119206
      5 H2          1.1260    3.0310    5.5620 hc        1 MOL      0.119206
      6 H3          2.5700    3.7020    4.7660 hc        1 MOL      0.119206
      7 N1         -0.3560    2.9180    3.4010 n         1 MOL     -0.616807
      8 C3         -1.1410    2.5710    2.2240 c3        1 MOL      0.095745
      9 C4         -1.9130    3.8120    1.7470 c         1 MOL      0.398408
     10 O2         -2.9710    4.1210    2.2580 o         1 MOL     -0.494434
     11 C5         -2.0420    1.3480    2.5240 c3        1 MOL     -0.292294
     12 C6         -2.9380    1.0890    1.3070 c         1 MOL      0.789027
     13 O3         -3.9190    0.4180    1.5500 o         1 MOL     -0.723250
     14 O4         -2.5470    1.3280    0.0830 o         1 MOL     -0.723250
     15 H4         -0.8550    3.1120    4.2530 hn        1 MOL      0.345902
     16 H5         -0.4440    2.2170    1.4610 h1        1 MOL      0.020844
     17 H6         -2.5720    1.6210    3.4260 hc        1 MOL      0.095589
     18 H7         -1.4830    0.4310    2.6530 hc        1 MOL      0.095589
     19 N2         -1.4460    4.5550    0.7500 n         1 MOL     -0.306174
     20 C7         -1.9900    5.8290    0.2380 c3        1 MOL      0.168582
     21 C8         -3.1200    5.7280   -0.8260 c         1 MOL      0.392984
     22 O5         -3.8270    6.6980   -1.0250 o         1 MOL     -0.538317
     23 C9         -0.8570    6.7140   -0.2270 c3        1 MOL     -0.177261
     24 C10        -0.1010    7.3050    0.9610 c3        1 MOL      0.081912
     25 C11         1.1450    8.1420    0.5430 c3        1 MOL     -0.044748
     26 C12         2.0810    8.6970    1.6180 c3        1 MOL      0.038873
     27 N3          3.2110    7.7620    1.8790 n4        1 MOL     -0.462407
     28 H8         -0.5400    4.2510    0.4270 hn        1 MOL      0.317725
     29 H9         -2.4490    6.1590    1.1720 h1        1 MOL      0.036578
     30 H10        -1.2350    7.5220   -0.8550 hc        1 MOL      0.057527
     31 H11        -0.1530    6.0940   -0.7760 hc        1 MOL      0.057527
     32 H12         0.2520    6.4460    1.5300 hc        1 MOL      0.004137
     33 H13        -0.7850    7.9690    1.4930 hc        1 MOL      0.004137
     34 H14         0.7440    9.0320    0.0560 hc        1 MOL      0.046561
     35 H15         1.7900    7.6120   -0.1690 hc        1 MOL      0.046561
     36 H16         1.4370    8.9090    2.4720 hx        1 MOL      0.082252
     37 H17         2.5080    9.6590    1.3270 hx        1 MOL      0.082252
     38 H18         3.9250    8.4030    2.1680 hn        1 MOL      0.360957
     39 H19         3.0530    7.1000    2.6230 hn        1 MOL      0.360957
     40 H20         3.5430    7.2900    1.0590 hn        1 MOL      0.360957
     41 N4         -3.3330    4.5360   -1.4290 n         1 MOL     -0.054312
     42 C13        -4.3570    4.2220   -2.3980 c3        1 MOL     -0.117748
     43 C14        -5.5260    3.4670   -1.7960 c         1 MOL      0.412471
     44 O6         -6.4770    3.1700   -2.5430 o         1 MOL     -0.506070
     45 C15        -3.6750    3.3570   -3.5540 c3        1 MOL     -0.149969
     46 C16        -2.8740    2.2000   -3.0590 c         1 MOL      0.738547
     47 O7         -3.2870    1.0400   -3.1490 o         1 MOL     -0.711824
     48 O8         -1.7040    2.3950   -2.6620 o         1 MOL     -0.711824
     49 H21        -2.6110    3.8490   -1.2800 hn        1 MOL      0.025339
     50 H22        -4.7160    5.1510   -2.8410 h1        1 MOL      0.130495
     51 H23        -3.0170    4.0080   -4.1300 hc        1 MOL      0.053789
     52 H24        -4.3670    2.9420   -4.2980 hc        1 MOL      0.053789
     53 N5         -5.4520    3.0230   -0.4760 n         1 MOL     -0.159678
     54 C17        -6.5180    2.4290    0.4130 c3        1 MOL     -0.061999
     55 C18        -6.9610    1.0600   -0.0160 c         1 MOL      0.369198
     56 O9         -8.1660    0.6660    0.2060 o         1 MOL     -0.539572
     57 H25        -4.6880    3.4280    0.0610 hn        1 MOL      0.146359
     58 H26        -7.3360    3.1630    0.4360 h1        1 MOL      0.091634
     59 H27        -6.2480    2.3320    1.4610 h1        1 MOL      0.091634
     60 N6         -6.1840    0.3640   -0.8660 n         1 MOL     -0.086477
     61 C19        -6.4520   -0.9950   -1.3450 c3        1 MOL     -0.089110
     62 C20        -6.3880   -2.0300   -0.2420 c         1 MOL      0.363093
     63 O10        -6.7830   -3.1790   -0.4150 o         1 MOL     -0.486002
     64 C21        -5.5980   -1.2090   -2.5800 c3        1 MOL     -0.088609
     65 C22        -4.1980   -1.6060   -2.2360 c         1 MOL      0.564006
     66 N7         -3.4920   -2.1170   -3.1960 n         1 MOL     -0.835410
     67 O11        -3.6360   -1.4240   -1.1960 o         1 MOL     -0.453679
     68 H28        -5.2440    0.6280   -1.0920 hn        1 MOL      0.099037
     69 H29        -7.4490   -1.2470   -1.7170 h1        1 MOL      0.109914
     70 H30        -5.5790   -0.3720   -3.2750 hc        1 MOL      0.067687
     71 H31        -6.0320   -2.0520   -3.1300 hc        1 MOL      0.067687
     72 H32        -3.9010   -2.3000   -4.0940 hn        1 MOL      0.371188
     73 H33        -2.6320   -2.6200   -3.0270 hn        1 MOL      0.371188
     74 N8         -5.8240   -1.6940    0.8920 n         1 MOL     -0.144542
     75 C23        -5.6210   -2.4990    2.0710 c3        1 MOL     -0.337255
     76 C24        -4.1960   -3.1010    2.3200 c         1 MOL      0.686095
     77 O12        -3.9660   -3.8640    3.2430 o         1 MOL     -0.586470
     78 H34        -5.2810   -0.8450    0.9210 hn        1 MOL      0.251732
     79 H35        -6.3960   -3.2680    2.0280 h1        1 MOL      0.140604
     80 H36        -5.8220   -1.9440    2.9910 h1        1 MOL      0.140604
     81 N9         -3.2360   -2.7690    1.4600 n         1 MOL     -0.745198
     82 C25        -1.9710   -3.4990    1.4370 c3        1 MOL      0.578159
     83 C26        -0.7870   -2.5040    1.3260 c         1 MOL      0.324002
     84 O13        -1.0160   -1.5150    0.6160 o         1 MOL     -0.680089
     85 C27        -1.9310   -4.5940    0.3380 c3        1 MOL     -0.110734
     86 C28        -3.0130   -5.6230    0.4660 ca        1 MOL      0.097197
     87 C29        -4.3170   -5.3350    0.0030 ca        1 MOL     -0.261337
     88 C30        -2.7600   -6.8510    1.0530 ca        1 MOL     -0.261337
     89 C31        -5.3320   -6.2780    0.2730 ca        1 MOL     -0.135429
     90 C32        -3.7830   -7.8400    1.2380 ca        1 MOL     -0.135429
     91 C33        -5.0350   -7.5530    0.8350 ca        1 MOL      0.261864
     92 O14        -6.0090   -8.4250    1.1550 oh        1 MOL     -0.486880
     93 H37        -3.4490   -2.1460    0.6880 hn        1 MOL      0.579307
     94 H38        -1.7930   -3.9600    2.4120 h1        1 MOL     -0.037776
     95 H39        -0.9530   -5.0530    0.4350 hc        1 MOL      0.013742
     96 H40        -1.9050   -4.1300   -0.6550 hc        1 MOL      0.013742
     97 H41        -4.6130   -4.3590   -0.3410 ha        1 MOL      0.125928
     98 H42        -1.7760   -7.0300    1.4580 ha        1 MOL      0.125928
     99 H43        -6.3150   -5.9240    0.0010 ha        1 MOL      0.111046
    100 H44        -3.5830   -8.7720    1.7300 ha        1 MOL      0.111046
    101 H45        -5.7280   -9.2020    1.6360 ho        1 MOL      0.363284
    102 N10         0.4680   -2.8590    1.7720 n         1 MOL     -0.381745
    103 C34         1.7390   -2.2040    1.3590 c3        1 MOL     -0.092596
    104 C35         2.7130   -3.2180    0.8460 c         1 MOL      0.514473
    105 O15         2.9220   -4.3050    1.4090 o         1 MOL     -0.548117
    106 C36         2.3350   -1.3620    2.4450 c3        1 MOL      0.096163
    107 C37         2.6950   -2.0720    3.7320 c3        1 MOL     -0.066051
    108 C38         1.2560   -0.2810    2.8710 c3        1 MOL     -0.337178
    109 C39         3.3410   -1.1400    4.7670 c3        1 MOL     -0.109717
    110 H46         0.5140   -3.6960    2.3400 hn        1 MOL      0.259569
    111 H47         1.6130   -1.5260    0.5080 h1        1 MOL      0.179385
    112 H48         3.1980   -0.8420    2.0300 hc        1 MOL     -0.036039
    113 H49         3.4310   -2.8710    3.6080 hc        1 MOL      0.059008
    114 H50         1.8510   -2.4790    4.2850 hc        1 MOL      0.059008
    115 H51         1.6720    0.5590    3.4460 hc        1 MOL      0.128367
    116 H52         0.8500    0.2420    2.0040 hc        1 MOL      0.128367
    117 H53         0.4620   -0.6370    3.5260 hc        1 MOL      0.128367
    118 H54         3.8030   -0.2770    4.2800 hc        1 MOL      0.024218
    119 H55         2.5530   -0.7690    5.4220 hc        1 MOL      0.024218
    120 H56         4.0610   -1.6380    5.4130 hc        1 MOL      0.024218
    121 N11         3.4220   -2.8140   -0.1880 n         1 MOL     -0.360632
    122 C40         4.5990   -3.5430   -0.7460 c3        1 MOL      0.218119
    123 C41         5.9420   -3.0220   -0.1280 c         1 MOL      0.374238
    124 O16         5.9550   -2.1100    0.6800 o         1 MOL     -0.363380
    125 C42         4.5820   -3.4070   -2.2730 c3        1 MOL     -0.308991
    126 O17         4.9120   -2.0440   -2.5060 oh        1 MOL     -0.420756
    127 H57         3.1620   -1.9120   -0.5660 hn        1 MOL      0.178286
    128 H58         4.4980   -4.6100   -0.5500 h1        1 MOL      0.042976
    129 H59         3.5700   -3.6810   -2.5970 h1        1 MOL      0.149762
    130 H60         5.2950   -4.0460   -2.7700 h1        1 MOL      0.149762
    131 H61         4.3500   -1.6310   -3.1650 ho        1 MOL      0.392355
    132 N12         7.0470   -3.7160   -0.4610 n         1 MOL     -0.477720
    133 C43         8.3580   -3.2540   -0.1050 c3        1 MOL      0.317112
    134 C44         8.6080   -1.8070   -0.6980 c         1 MOL      0.265714
    135 O18         9.1730   -0.9680    0.0880 o         1 MOL     -0.479608
    136 C45         9.3450   -4.1540   -0.7760 c3        1 MOL     -0.301910
    137 H62         6.8240   -4.5670   -0.9670 hn        1 MOL      0.280851
    138 H63         8.5840   -3.3210    0.9540 h1        1 MOL      0.061308
    139 H64        10.3510   -3.7660   -0.6000 hc        1 MOL      0.081496
    140 H65         9.3240   -5.0890   -0.2170 hc        1 MOL      0.081496
    141 H66         9.1970   -4.2670   -1.8540 hc        1 MOL      0.081496
    142 N13         8.1900   -1.5110   -1.9670 n         1 MOL     -0.274604
    143 C46         8.2160   -0.1440   -2.5890 c3        1 MOL      0.125299
    144 C47         7.3070    0.8130   -1.8570 c         1 MOL      0.291653
    145 O19         7.6230    1.9590   -1.6400 o         1 MOL     -0.494242
    146 C48         7.8990   -0.2610   -4.0130 c3        1 MOL     -0.179363
    147 H67         7.8680   -2.3190   -2.4850 hn        1 MOL      0.256899
    148 H68         9.2550    0.1980   -2.6030 h1        1 MOL      0.096775
    149 H69         6.8920   -0.6570   -4.1300 hc        1 MOL      0.047170
    150 H70         7.8640    0.7260   -4.4820 hc        1 MOL      0.047170
    151 H71         8.5960   -0.9820   -4.4460 hc        1 MOL      0.047170
    152 N14         6.0830    0.4490   -1.3750 n         1 MOL      0.066191
    153 C49         5.1700    1.3800   -0.6970 c3        1 MOL     -0.035373
    154 C50         5.7700    1.7500    0.6730 c         1 MOL      0.347158
    155 O20         5.7450    2.9170    1.0240 o         1 MOL     -0.541185
    156 C51         3.8100    0.7720   -0.6560 c3        1 MOL     -0.083570
    157 C52         3.0010    1.1150   -1.8940 c3        1 MOL     -0.102187
    158 C53         1.5590    0.5940   -1.7150 c         1 MOL      0.755323
    159 O21         1.2490   -0.5440   -2.0970 o         1 MOL     -0.761878
    160 O22         0.7500    1.2510   -1.0500 o         1 MOL     -0.761878
    161 H72         5.7550   -0.4820   -1.6090 hn        1 MOL     -0.028986
    162 H73         5.1110    2.3140   -1.2500 h1        1 MOL      0.083911
    163 H74         3.2790    1.2000    0.2050 hc        1 MOL      0.103924
    164 H75         3.8580   -0.2920   -0.4310 hc        1 MOL      0.103924
    165 H76         3.4940    0.7790   -2.8060 hc        1 MOL      0.007577
    166 H77         2.8960    2.1840   -2.0840 hc        1 MOL      0.007577
    167 N15         6.5210    0.8360    1.3350 n         1 MOL      0.030474
    168 C54         7.1910    1.0570    2.6000 c3        1 MOL     -0.237103
    169 H78         6.8800    2.0180    3.0110 h1        1 MOL      0.089843
    170 H79         6.9270    0.2610    3.2960 h1        1 MOL      0.089843
    171 H80         8.2700    1.0610    2.4430 h1        1 MOL      0.089843
    172 H81         6.5810   -0.1060    1.0000 hn        1 MOL      0.062080
    173 Ca1        -1.4090   -0.1270   -1.5680 Ca        1 MOL      1.750888
    174 O23        -0.6640   -2.6240   -2.5740 oh        1 MOL     -0.838262
    175 H82         0.2470   -2.3180   -2.5340 ho        1 MOL      0.406659
    176 H83        -0.6130   -3.4470   -3.0700 ho        1 MOL      0.406659
    177 O24        -0.7880   -0.2020   -4.1850 oh        1 MOL     -0.838262
    178 H84        -1.1430    0.4590   -4.7800 ho        1 MOL      0.406659
    179 H85        -0.4930   -0.9070   -4.7560 ho        1 MOL      0.406659
@<TRIPOS>BOND
     1    1    2 1   
     2    1    4 1   
     3    1    5 1   
     4    1    6 1   
     5    2    3 2   
     6    2    7 1   
     7    7    8 1   
     8    7   15 1   
     9    8    9 1   
    10    8   11 1   
    11    8   16 1   
    12    9   10 2   
    13    9   19 1   
    14   11   12 1   
    15   11   17 1   
    16   11   18 1   
    17   12   13 1   
    18   12   14 1   
    19   19   20 1   
    20   19   28 1   
    21   20   21 1   
    22   20   23 1   
    23   20   29 1   
    24   21   22 2   
    25   21   41 1   
    26   23   24 1   
    27   23   30 1   
    28   23   31 1   
    29   24   25 1   
    30   24   32 1   
    31   24   33 1   
    32   25   26 1   
    33   25   34 1   
    34   25   35 1   
    35   26   27 1   
    36   26   36 1   
    37   26   37 1   
    38   27   38 1   
    39   27   39 1   
    40   27   40 1   
    41   41   42 1   
    42   41   49 1   
    43   42   43 1   
    44   42   45 1   
    45   42   50 1   
    46   43   44 2   
    47   43   53 1   
    48   45   46 1   
    49   45   51 1   
    50   45   52 1   
    51   46   47 1   
    52   46   48 1   
    53   53   54 1   
    54   53   57 1   
    55   54   55 1   
    56   54   58 1   
    57   54   59 1   
    58   55   56 2   
    59   55   60 1   
    60   60   61 1   
    61   60   68 1   
    62   61   62 1   
    63   61   64 1   
    64   61   69 1   
    65   62   63 2   
    66   62   74 1   
    67   64   65 1   
    68   64   70 1   
    69   64   71 1   
    70   65   66 1   
    71   65   67 2   
    72   66   72 1   
    73   66   73 1   
    74   74   75 1   
    75   74   78 1   
    76   75   76 1   
    77   75   79 1   
    78   75   80 1   
    79   76   77 2   
    80   76   81 1   
    81   81   82 1   
    82   81   93 1   
    83   82   83 1   
    84   82   85 1   
    85   82   94 1   
    86   83   84 2   
    87   83  102 1   
    88   85   86 1   
    89   85   95 1   
    90   85   96 1   
    91   86   87 ar  
    92   86   88 ar  
    93   87   89 ar  
    94   87   97 1   
    95   88   90 ar  
    96   88   98 1   
    97   89   91 ar  
    98   89   99 1   
    99   90   91 ar  
   100   90  100 1   
   101   91   92 1   
   102   92  101 1   
   103  102  103 1   
   104  102  110 1   
   105  103  104 1   
   106  103  106 1   
   107  103  111 1   
   108  104  105 2   
   109  104  121 1   
   110  106  107 1   
   111  106  108 1   
   112  106  112 1   
   113  107  109 1   
   114  107  113 1   
   115  107  114 1   
   116  108  115 1   
   117  108  116 1   
   118  108  117 1   
   119  109  118 1   
   120  109  119 1   
   121  109  120 1   
   122  121  122 1   
   123  121  127 1   
   124  122  123 1   
   125  122  125 1   
   126  122  128 1   
   127  123  124 2   
   128  123  132 1   
   129  125  126 1   
   130  125  129 1   
   131  125  130 1   
   132  126  131 1   
   133  132  133 1   
   134  132  137 1   
   135  133  134 1   
   136  133  136 1   
   137  133  138 1   
   138  134  135 2   
   139  134  142 1   
   140  136  139 1   
   141  136  140 1   
   142  136  141 1   
   143  142  143 1   
   144  142  147 1   
   145  143  144 1   
   146  143  146 1   
   147  143  148 1   
   148  144  145 2   
   149  144  152 1   
   150  146  149 1   
   151  146  150 1   
   152  146  151 1   
   153  152  153 1   
   154  152  161 1   
   155  153  154 1   
   156  153  156 1   
   157  153  162 1   
   158  154  155 2   
   159  154  167 1   
   160  156  157 1   
   161  156  163 1   
   162  156  164 1   
   163  157  158 1   
   164  157  165 1   
   165  157  166 1   
   166  158  159 1   
   167  158  160 1   
   168  167  168 1   
   169  167  172 1   
   170  168  169 1   
   171  168  170 1   
   172  168  171 1   
   173  174  175 1   
   174  174  176 1   
   175  177  178 1   
   176  177  179 1   
@<TRIPOS>SUBSTRUCTURE
     1 MOL         1 TEMP              0 ****  ****    0 ROOT
