@<TRIPOS>MOLECULE
MOL
  186   183     1     0     0
SMALL
resp


@<TRIPOS>ATOM
      1 C1          0.9350   -2.6240    6.1050 c3        1 MOL     -0.411373
      2 C2          1.1460   -2.6570    4.6540 c         1 MOL      0.753331
      3 O1          0.3150   -3.0570    3.8300 o         1 MOL     -0.597844
      4 H1          0.6220   -3.6100    6.4490 hc        1 MOL      0.097323
      5 H2          1.8630   -2.3440    6.6020 hc        1 MOL      0.097323
      6 H3          0.1610   -1.8940    6.3440 hc        1 MOL      0.097323
      7 N1          2.3160   -2.1250    4.2780 n         1 MOL     -0.546095
      8 C3          2.8760   -1.9770    2.9070 c3        1 MOL      0.120909
      9 C4          3.3010   -3.2660    2.2010 c         1 MOL      0.442204
     10 O2          4.2570   -3.9620    2.6220 o         1 MOL     -0.595260
     11 C5          3.9850   -0.8980    2.8820 c3        1 MOL     -0.294248
     12 C6          4.6650   -0.5300    1.5570 c         1 MOL      0.829179
     13 O3          5.7510   -0.0340    1.6110 o         1 MOL     -0.724541
     14 O4          4.0140   -0.6340    0.5110 o         1 MOL     -0.724541
     15 H4          2.8620   -1.6480    4.9870 hn        1 MOL      0.296116
     16 H5          2.0400   -1.6120    2.3190 h1        1 MOL      0.015274
     17 H6          4.7410   -1.0760    3.6430 hc        1 MOL      0.059689
     18 H7          3.5070    0.0590    3.1090 hc        1 MOL      0.059689
     19 N2          2.6120   -3.7240    1.1630 n         1 MOL     -0.014841
     20 C7          2.6690   -5.1020    0.6230 c3        1 MOL      0.057641
     21 C8          3.8520   -5.2040   -0.4220 c         1 MOL      0.295517
     22 O5          4.3300   -6.3430   -0.5830 o         1 MOL     -0.570905
     23 C9          1.3510   -5.3690   -0.0310 c3        1 MOL      0.090461
     24 C10         0.1520   -5.5280    0.9770 c3        1 MOL     -0.060481
     25 C11         1.3110   -6.4990   -1.0630 c3        1 MOL     -0.206675
     26 C12         0.4390   -6.4000    2.2490 c3        1 MOL     -0.085467
     27 H8          1.8190   -3.1850    0.8210 hn        1 MOL      0.161538
     28 H9          2.9250   -5.8360    1.3840 h1        1 MOL      0.047128
     29 H10         1.1630   -4.5060   -0.6630 hc        1 MOL      0.038716
     30 H11        -0.6630   -5.9640    0.4130 hc        1 MOL      0.037629
     31 H12        -0.1440   -4.5440    1.3500 hc        1 MOL      0.037629
     32 H13         1.9090   -6.2210   -1.9230 hc        1 MOL      0.046580
     33 H14         1.6400   -7.4400   -0.6300 hc        1 MOL      0.046580
     34 H15         0.3290   -6.7540   -1.4750 hc        1 MOL      0.046580
     35 H16        -0.4200   -6.5790    2.8870 hc        1 MOL      0.011994
     36 H17         0.6740   -7.4050    1.8980 hc        1 MOL      0.011994
     37 H18         1.2900   -5.9800    2.7990 hc        1 MOL      0.011994
     38 N3          4.1760   -4.1340   -1.1080 n         1 MOL     -0.165233
     39 C13         5.1010   -4.1090   -2.2150 c3        1 MOL      0.136600
     40 C14         6.3260   -3.2130   -1.9360 c         1 MOL      0.289385
     41 O6          7.1870   -3.0070   -2.8100 o         1 MOL     -0.525873
     42 C15         4.2680   -3.7030   -3.4180 c3        1 MOL     -0.251962
     43 C16         3.4100   -2.5260   -3.1530 c         1 MOL      0.827505
     44 O7          2.3690   -2.3690   -3.8560 o         1 MOL     -0.735189
     45 O8          3.7350   -1.6850   -2.2440 o         1 MOL     -0.735189
     46 H19         3.6820   -3.2890   -0.8640 hn        1 MOL      0.126663
     47 H20         5.4890   -5.0820   -2.5090 h1        1 MOL      0.067739
     48 H21         3.6930   -4.5830   -3.6950 hc        1 MOL      0.058565
     49 H22         4.9220   -3.4130   -4.2480 hc        1 MOL      0.058565
     50 N4          6.4240   -2.7310   -0.7270 n         1 MOL     -0.104744
     51 C17         7.6610   -2.0130   -0.3000 c3        1 MOL     -0.292899
     52 C18         7.9680   -0.6710   -0.8420 c         1 MOL      0.588236
     53 O9          9.1460   -0.2720   -0.7730 o         1 MOL     -0.618307
     54 H23         5.8730   -3.1470    0.0050 hn        1 MOL      0.197775
     55 H24         8.4980   -2.6310   -0.6090 h1        1 MOL      0.118628
     56 H25         7.6410   -1.9100    0.7870 h1        1 MOL      0.118628
     57 N5          6.9530    0.0860   -1.2140 n         1 MOL     -0.284615
     58 C19         7.1680    1.4180   -1.8990 c3        1 MOL      0.009950
     59 C20         7.0960    2.5510   -0.8560 c         1 MOL      0.457155
     60 O10         7.4370    3.6440   -1.1950 o         1 MOL     -0.578738
     61 C21         6.1850    1.6010   -3.0330 c3        1 MOL     -0.138377
     62 C22         4.7050    1.5500   -2.6310 c         1 MOL      0.642782
     63 O11         3.7930    1.0560   -3.4030 o         1 MOL     -0.715379
     64 O12         4.3460    1.9520   -1.5130 o         1 MOL     -0.715379
     65 H26         5.9940   -0.2350   -1.2040 hn        1 MOL      0.272544
     66 H27         8.1800    1.5090   -2.2930 h1        1 MOL      0.083993
     67 H28         6.4320    0.7540   -3.6730 hc        1 MOL      0.049768
     68 H29         6.4180    2.4730   -3.6380 hc        1 MOL      0.049768
     69 N6          6.7630    2.2630    0.3910 n         1 MOL     -0.260671
     70 C23         6.6970    3.2880    1.4570 c3        1 MOL     -0.141541
     71 C24         5.4090    4.0770    1.6610 c         1 MOL      0.566653
     72 O13         5.4340    5.0190    2.4440 o         1 MOL     -0.621839
     73 H30         6.6030    1.2990    0.6550 hn        1 MOL      0.272778
     74 H31         7.4300    4.0700    1.3050 h1        1 MOL      0.082439
     75 H32         7.0000    2.7610    2.3670 h1        1 MOL      0.082439
     76 N7          4.3660    3.7960    0.9230 n         1 MOL     -0.223007
     77 C25         3.0250    4.3380    1.2330 c3        1 MOL     -0.071128
     78 C26         1.9790    3.2480    1.2740 c         1 MOL      0.641762
     79 O14         2.1670    2.1460    0.7920 o         1 MOL     -0.596772
     80 C27         2.5560    5.3260    0.1550 c3        1 MOL      0.155322
     81 C28         3.1510    6.7040    0.4550 c3        1 MOL     -0.405053
     82 C29         3.0180    7.7750   -0.6100 c         1 MOL      0.693837
     83 N8          4.0770    8.1840   -1.2800 n         1 MOL     -0.798192
     84 O15         1.8480    8.2560   -0.8660 o         1 MOL     -0.597055
     85 H33         4.4710    3.0160    0.2920 hn        1 MOL      0.163398
     86 H34         3.0500    4.8490    2.2020 h1        1 MOL      0.077472
     87 H35         1.4730    5.3790    0.0880 hc        1 MOL      0.020555
     88 H36         2.8260    5.0960   -0.8770 hc        1 MOL      0.020555
     89 H37         4.2170    6.6070    0.6300 hc        1 MOL      0.099227
     90 H38         2.6080    7.1310    1.2940 hc        1 MOL      0.099227
     91 H39         4.8640    7.5610   -1.1500 hn        1 MOL      0.370060
     92 H40         4.1400    8.9640   -1.9310 hn        1 MOL      0.370060
     93 N9          0.7960    3.5940    1.9150 n         1 MOL     -0.543699
     94 C30        -0.2750    2.5920    2.1430 c3        1 MOL      0.056762
     95 C31        -1.4770    3.0610    1.3220 c         1 MOL      0.392743
     96 O16        -2.1320    4.0740    1.5980 o         1 MOL     -0.564157
     97 C32        -0.7180    2.4050    3.5890 c3        1 MOL      0.280047
     98 C33        -1.9340    1.3950    3.7230 c3        1 MOL     -0.260521
     99 C34         0.4990    1.8700    4.3650 c3        1 MOL     -0.260521
    100 H41         0.7380    4.4860    2.3800 hn        1 MOL      0.306711
    101 H42         0.0410    1.5890    1.8370 h1        1 MOL      0.140103
    102 H43        -0.9740    3.3770    4.0060 hc        1 MOL     -0.041714
    103 H44        -2.1250    1.3360    4.8010 hc        1 MOL      0.044483
    104 H45        -2.7870    1.8920    3.2720 hc        1 MOL      0.044483
    105 H46        -1.8540    0.4360    3.2200 hc        1 MOL      0.044483
    106 H47         1.3400    2.5660    4.4490 hc        1 MOL      0.044483
    107 H48         0.1350    1.6220    5.3560 hc        1 MOL      0.044483
    108 H49         0.8600    0.9400    3.9370 hc        1 MOL      0.044483
    109 N10        -1.7380    2.3020    0.2690 n         1 MOL     -0.174093
    110 C35        -2.8990    2.4470   -0.5910 c3        1 MOL      0.065076
    111 C36        -4.1760    1.9750    0.0990 c         1 MOL      0.196595
    112 O17        -4.1150    1.1050    0.9810 o         1 MOL     -0.184992
    113 C37        -2.5590    1.7080   -1.9300 c3        1 MOL     -0.479974
    114 C38        -3.7770    1.7830   -2.8900 c         1 MOL      0.632807
    115 N11        -3.9090    2.8380   -3.5920 n         1 MOL     -0.720218
    116 O18        -4.6200    0.9120   -2.8380 o         1 MOL     -0.454404
    117 H50        -1.1830    1.4670    0.1890 hn        1 MOL      0.189054
    118 H51        -2.9880    3.4890   -0.8880 h1        1 MOL      0.067909
    119 H52        -2.3570    0.6680   -1.6740 hc        1 MOL      0.197394
    120 H53        -1.5670    2.0340   -2.2640 hc        1 MOL      0.197394
    121 H54        -3.1410    3.4880   -3.6810 hn        1 MOL      0.352391
    122 H55        -4.8040    3.1030   -3.9800 hn        1 MOL      0.352391
    123 N12        -5.4010    2.4690   -0.2960 n         1 MOL     -0.280657
    124 C39        -6.6830    2.0010    0.1950 c3        1 MOL      0.034221
    125 C40        -6.7740    0.4340    0.2960 c         1 MOL      0.473238
    126 O19        -7.4420   -0.1260    1.1650 o         1 MOL     -0.500146
    127 C41        -7.8270    2.4390   -0.8290 c3        1 MOL     -0.073993
    128 C42        -9.1530    1.9670   -0.3970 ca        1 MOL      0.056615
    129 C43        -9.7090    2.3980    0.8240 ca        1 MOL     -0.221468
    130 C44        -9.8450    1.0640   -1.2480 ca        1 MOL     -0.221468
    131 C45       -10.9600    1.8590    1.2490 ca        1 MOL     -0.235082
    132 C46       -11.1490    0.6430   -0.9140 ca        1 MOL     -0.235082
    133 C47       -11.6870    1.0170    0.3550 ca        1 MOL      0.342716
    134 O20       -12.9670    0.6140    0.6940 oh        1 MOL     -0.545393
    135 H56        -5.4970    3.2790   -0.9060 hn        1 MOL      0.224716
    136 H57        -6.9480    2.4410    1.1580 h1        1 MOL      0.035059
    137 H58        -7.6130    2.1770   -1.8600 hc        1 MOL      0.046035
    138 H59        -7.9140    3.5270   -0.8690 hc        1 MOL      0.046035
    139 H60        -9.1390    2.9590    1.5490 ha        1 MOL      0.161706
    140 H61        -9.4000    0.7070   -2.1640 ha        1 MOL      0.161706
    141 H62       -11.4040    2.1670    2.1880 ha        1 MOL      0.146536
    142 H63       -11.6150   -0.0510   -1.5950 ha        1 MOL      0.146536
    143 H64       -13.3720    0.1630   -0.0390 ho        1 MOL      0.377214
    144 N13        -6.2300   -0.2350   -0.7090 n         1 MOL      0.005665
    145 C48        -6.3040   -1.6830   -0.9110 c3        1 MOL     -0.117281
    146 C49        -5.3370   -2.4570    0.0060 c         1 MOL      0.253858
    147 O21        -5.5910   -3.5730    0.5210 o         1 MOL     -0.508498
    148 C50        -6.1670   -2.1400   -2.4010 c3        1 MOL      0.179195
    149 C51        -7.2210   -1.5930   -3.3750 c3        1 MOL     -0.340062
    150 C52        -7.1970   -2.2980   -4.7510 c         1 MOL      0.752477
    151 O22        -8.0310   -3.1860   -5.0000 o         1 MOL     -0.750434
    152 O23        -6.3810   -1.9580   -5.6130 o         1 MOL     -0.750434
    153 H65        -5.7740    0.2650   -1.4550 hn        1 MOL      0.028495
    154 H66        -7.3250   -1.9430   -0.6270 h1        1 MOL      0.092395
    155 H67        -6.2210   -3.2300   -2.3800 hc        1 MOL      0.006750
    156 H68        -5.1520   -1.9060   -2.7300 hc        1 MOL      0.006750
    157 H69        -7.0970   -0.5280   -3.5650 hc        1 MOL      0.044134
    158 H70        -8.1870   -1.8040   -2.9130 hc        1 MOL      0.044134
    159 N14        -4.2770   -1.8300    0.4460 n         1 MOL     -0.081069
    160 C53        -3.3430   -2.3540    1.4750 c3        1 MOL     -0.015541
    161 C54        -3.9180   -2.1010    2.9120 c         1 MOL      0.414262
    162 O24        -3.7340   -2.8980    3.8450 o         1 MOL     -0.559279
    163 C55        -2.0060   -1.6180    1.3240 c3        1 MOL     -0.084816
    164 C56        -1.2960   -1.8760   -0.0250 c3        1 MOL      0.055868
    165 C57        -0.0200   -1.0940   -0.0620 c         1 MOL      0.801796
    166 O25         1.0990   -1.6960   -0.1910 o         1 MOL     -0.825837
    167 O26        -0.0730    0.1460   -0.2630 o         1 MOL     -0.825837
    168 H71        -4.1580   -0.8770    0.1340 hn        1 MOL      0.131158
    169 H72        -3.1300   -3.4110    1.2860 h1        1 MOL      0.093600
    170 H73        -1.2910   -1.8280    2.1150 hc        1 MOL      0.070618
    171 H74        -2.1400   -0.5430    1.3400 hc        1 MOL      0.070618
    172 H75        -1.8740   -1.5770   -0.8890 hc        1 MOL     -0.051222
    173 H76        -0.9310   -2.9000   -0.0770 hc        1 MOL     -0.051222
    174 N15        -4.7100   -1.0280    3.0650 n         1 MOL      0.036783
    175 C58        -5.5210   -0.6600    4.2050 c3        1 MOL     -0.171294
    176 H77        -5.5650   -1.4960    4.9020 h1        1 MOL      0.064978
    177 H78        -5.0790    0.2040    4.7010 h1        1 MOL      0.064978
    178 H79        -6.5280   -0.4120    3.8700 h1        1 MOL      0.064978
    179 H80        -4.7870   -0.4700    2.2160 hn        1 MOL     -0.067645
    180 Ca1         2.3830    0.2400   -1.2280 Ca        1 MOL      1.775559
    181 O27         1.8470    3.1670   -2.2050 oh        1 MOL     -0.865439
    182 H81         1.9480    3.3300   -3.1420 ho        1 MOL      0.413077
    183 H82         2.7420    3.1280   -1.8760 ho        1 MOL      0.413077
    184 O28         0.9820   -0.1550   -3.4490 oh        1 MOL     -0.865439
    185 H83         0.0630   -0.2960   -3.6660 ho        1 MOL      0.413077
    186 H84         1.4580   -0.7990   -3.9710 ho        1 MOL      0.413077
@<TRIPOS>BOND
     1    1    2 1   
     2    1    4 1   
     3    1    5 1   
     4    1    6 1   
     5    2    3 2   
     6    2    7 1   
     7    7    8 1   
     8    7   15 1   
     9    8    9 1   
    10    8   11 1   
    11    8   16 1   
    12    9   10 2   
    13    9   19 1   
    14   11   12 1   
    15   11   17 1   
    16   11   18 1   
    17   12   13 1   
    18   12   14 1   
    19   19   20 1   
    20   19   27 1   
    21   20   21 1   
    22   20   23 1   
    23   20   28 1   
    24   21   22 2   
    25   21   38 1   
    26   23   24 1   
    27   23   25 1   
    28   23   29 1   
    29   24   26 1   
    30   24   30 1   
    31   24   31 1   
    32   25   32 1   
    33   25   33 1   
    34   25   34 1   
    35   26   35 1   
    36   26   36 1   
    37   26   37 1   
    38   38   39 1   
    39   38   46 1   
    40   39   40 1   
    41   39   42 1   
    42   39   47 1   
    43   40   41 2   
    44   40   50 1   
    45   42   43 1   
    46   42   48 1   
    47   42   49 1   
    48   43   44 1   
    49   43   45 1   
    50   50   51 1   
    51   50   54 1   
    52   51   52 1   
    53   51   55 1   
    54   51   56 1   
    55   52   53 2   
    56   52   57 1   
    57   57   58 1   
    58   57   65 1   
    59   58   59 1   
    60   58   61 1   
    61   58   66 1   
    62   59   60 2   
    63   59   69 1   
    64   61   62 1   
    65   61   67 1   
    66   61   68 1   
    67   62   63 1   
    68   62   64 1   
    69   69   70 1   
    70   69   73 1   
    71   70   71 1   
    72   70   74 1   
    73   70   75 1   
    74   71   72 2   
    75   71   76 1   
    76   76   77 1   
    77   76   85 1   
    78   77   78 1   
    79   77   80 1   
    80   77   86 1   
    81   78   79 2   
    82   78   93 1   
    83   80   81 1   
    84   80   87 1   
    85   80   88 1   
    86   81   82 1   
    87   81   89 1   
    88   81   90 1   
    89   82   83 1   
    90   82   84 2   
    91   83   91 1   
    92   83   92 1   
    93   93   94 1   
    94   93  100 1   
    95   94   95 1   
    96   94   97 1   
    97   94  101 1   
    98   95   96 2   
    99   95  109 1   
   100   97   98 1   
   101   97   99 1   
   102   97  102 1   
   103   98  103 1   
   104   98  104 1   
   105   98  105 1   
   106   99  106 1   
   107   99  107 1   
   108   99  108 1   
   109  109  110 1   
   110  109  117 1   
   111  110  111 1   
   112  110  113 1   
   113  110  118 1   
   114  111  112 2   
   115  111  123 1   
   116  113  114 1   
   117  113  119 1   
   118  113  120 1   
   119  114  115 1   
   120  114  116 2   
   121  115  121 1   
   122  115  122 1   
   123  123  124 1   
   124  123  135 1   
   125  124  125 1   
   126  124  127 1   
   127  124  136 1   
   128  125  126 2   
   129  125  144 1   
   130  127  128 1   
   131  127  137 1   
   132  127  138 1   
   133  128  129 ar  
   134  128  130 ar  
   135  129  131 ar  
   136  129  139 1   
   137  130  132 ar  
   138  130  140 1   
   139  131  133 ar  
   140  131  141 1   
   141  132  133 ar  
   142  132  142 1   
   143  133  134 1   
   144  134  143 1   
   145  144  145 1   
   146  144  153 1   
   147  145  146 1   
   148  145  148 1   
   149  145  154 1   
   150  146  147 2   
   151  146  159 1   
   152  148  149 1   
   153  148  155 1   
   154  148  156 1   
   155  149  150 1   
   156  149  157 1   
   157  149  158 1   
   158  150  151 1   
   159  150  152 1   
   160  159  160 1   
   161  159  168 1   
   162  160  161 1   
   163  160  163 1   
   164  160  169 1   
   165  161  162 2   
   166  161  174 1   
   167  163  164 1   
   168  163  170 1   
   169  163  171 1   
   170  164  165 1   
   171  164  172 1   
   172  164  173 1   
   173  165  166 1   
   174  165  167 1   
   175  174  175 1   
   176  174  179 1   
   177  175  176 1   
   178  175  177 1   
   179  175  178 1   
   180  181  182 1   
   181  181  183 1   
   182  184  185 1   
   183  184  186 1   
@<TRIPOS>SUBSTRUCTURE
     1 MOL         1 TEMP              0 ****  ****    0 ROOT
