@<TRIPOS>MOLECULE
MOL
  189   185     1     0     0
SMALL
resp


@<TRIPOS>ATOM
      1 C1         -0.1860    3.4280   -4.8150 c3        1 MOL     -0.281616
      2 C2          0.4020    2.9800   -3.5240 c         1 MOL      0.727973
      3 O1         -0.2750    3.0890   -2.4930 o         1 MOL     -0.607433
      4 H1          0.4390    4.2100   -5.2470 hc        1 MOL      0.070786
      5 H2         -0.2410    2.5840   -5.5030 hc        1 MOL      0.070786
      6 H3         -1.1880    3.8210   -4.6420 hc        1 MOL      0.070786
      7 N1          1.5910    2.4150   -3.4790 n         1 MOL     -0.654362
      8 C3          2.2640    1.8870   -2.2580 c3        1 MOL      0.221668
      9 C4          2.8810    2.9930   -1.3910 c         1 MOL      0.419034
     10 O2          3.9530    3.4640   -1.6270 o         1 MOL     -0.541946
     11 C5          3.2810    0.7320   -2.5570 c3        1 MOL     -0.202673
     12 C6          4.0490    0.1740   -1.3270 c         1 MOL      0.725092
     13 O3          5.1160   -0.4300   -1.4080 o         1 MOL     -0.673164
     14 O4          3.4800    0.2490   -0.2080 o         1 MOL     -0.673164
     15 H4          2.0400    2.2500   -4.3710 hn        1 MOL      0.324179
     16 H5          1.4690    1.3790   -1.7070 h1        1 MOL      0.011828
     17 H6          3.9960    1.1130   -3.2990 hc        1 MOL      0.038808
     18 H7          2.7750   -0.1410   -2.9830 hc        1 MOL      0.038808
     19 N2          2.1440    3.3960   -0.3490 n         1 MOL      0.030796
     20 C7          2.3930    4.7230    0.2720 c3        1 MOL     -0.108771
     21 C8          3.2370    4.6950    1.5950 c         1 MOL      0.463149
     22 O5          3.6800    5.7660    2.0900 o         1 MOL     -0.554196
     23 C9          1.0900    5.5180    0.3780 c3        1 MOL      0.055604
     24 C10         0.6110    6.0540   -1.0090 c3        1 MOL     -0.049284
     25 C11         1.6300    7.0710   -1.6270 c3        1 MOL     -0.033987
     26 C12         1.0130    8.1720   -2.5040 c3        1 MOL      0.059661
     27 N3          1.8540    9.3290   -2.7100 n4        1 MOL     -0.306964
     28 H8          1.3570    2.8370   -0.0440 hn        1 MOL      0.162877
     29 H9          3.0620    5.3350   -0.3430 h1        1 MOL      0.052109
     30 H10         1.3440    6.3250    1.0680 hc        1 MOL      0.013291
     31 H11         0.3210    4.9130    0.8590 hc        1 MOL      0.013291
     32 H12        -0.2260    6.6740   -0.6940 hc        1 MOL      0.028441
     33 H13         0.3630    5.2720   -1.7340 hc        1 MOL      0.028441
     34 H14         2.4600    6.5380   -2.0920 hc        1 MOL      0.033767
     35 H15         2.1640    7.6370   -0.8600 hc        1 MOL      0.033767
     36 H16         0.0720    8.3850   -1.9880 hx        1 MOL      0.057163
     37 H17         0.7840    7.7690   -3.4930 hx        1 MOL      0.057163
     38 H18         2.0750    9.8710   -1.8830 hn        1 MOL      0.317131
     39 H19         2.7130    9.0780   -3.1850 hn        1 MOL      0.317131
     40 H20         1.3560    9.9720   -3.3070 hn        1 MOL      0.317131
     41 N4          3.4890    3.4610    2.1300 n         1 MOL     -0.276706
     42 C13         4.4980    3.2420    3.1970 c3        1 MOL      0.089506
     43 C14         5.7410    2.4340    2.6870 c         1 MOL      0.356193
     44 O6          6.7000    2.1960    3.4110 o         1 MOL     -0.518569
     45 C15         3.8110    2.6380    4.4680 c3        1 MOL     -0.245447
     46 C16         3.0350    1.3250    4.2620 c         1 MOL      0.791660
     47 O7          2.3550    0.9330    5.2360 o         1 MOL     -0.687046
     48 O8          2.9660    0.6800    3.2010 o         1 MOL     -0.687046
     49 H21         3.1350    2.6160    1.7120 hn        1 MOL      0.139084
     50 H22         4.9110    4.2120    3.4720 h1        1 MOL      0.078482
     51 H23         3.0610    3.3540    4.8020 hc        1 MOL      0.073301
     52 H24         4.5510    2.5740    5.2760 hc        1 MOL      0.073301
     53 N5          5.7020    1.9080    1.4630 n         1 MOL     -0.107158
     54 C17         6.8310    1.4770    0.6830 c3        1 MOL     -0.096304
     55 C18         7.3780    0.0660    1.0750 c         1 MOL      0.477170
     56 O9          8.5400   -0.1500    0.8730 o         1 MOL     -0.568021
     57 H25         4.8740    2.1160    0.9160 hn        1 MOL      0.075679
     58 H26         7.6120    2.2270    0.5870 h1        1 MOL      0.085442
     59 H27         6.4690    1.2880   -0.3180 h1        1 MOL      0.085442
     60 N6          6.5160   -0.8410    1.5250 n         1 MOL     -0.166237
     61 C19         6.8510   -2.2400    1.8660 c3        1 MOL      0.021629
     62 C20         6.9620   -3.2010    0.6550 c         1 MOL      0.394672
     63 O10         7.4540   -4.3030    0.8430 o         1 MOL     -0.541339
     64 C21         5.8360   -2.7790    2.8700 c3        1 MOL     -0.346804
     65 C22         4.3610   -2.6100    2.4110 c         1 MOL      0.781975
     66 O11         4.0740   -2.7720    1.1680 o         1 MOL     -0.700374
     67 O12         3.4860   -2.3200    3.2730 o         1 MOL     -0.700374
     68 H28         5.5270   -0.6460    1.6120 hn        1 MOL      0.102649
     69 H29         7.7850   -2.2240    2.4200 h1        1 MOL      0.100118
     70 H30         5.9880   -2.1540    3.7520 hc        1 MOL      0.105758
     71 H31         6.1000   -3.8270    2.9900 hc        1 MOL      0.105758
     72 N7          6.4180   -2.8190   -0.4910 n         1 MOL     -0.185860
     73 C23         6.4080   -3.6690   -1.6940 c3        1 MOL     -0.084877
     74 C24         5.0910   -4.2360   -2.2290 c         1 MOL      0.486578
     75 O13         5.0930   -4.9450   -3.2600 o         1 MOL     -0.591086
     76 H32         5.8840   -1.9630   -0.4860 hn        1 MOL      0.207361
     77 H33         7.1850   -4.4280   -1.6420 h1        1 MOL      0.076600
     78 H34         6.7250   -3.0540   -2.5330 h1        1 MOL      0.076600
     79 N8          4.0330   -3.9140   -1.5360 n         1 MOL     -0.171473
     80 C25         2.5990   -4.2760   -1.6940 c3        1 MOL     -0.324171
     81 C26         1.5950   -3.1400   -1.6220 c         1 MOL      0.769285
     82 O14         1.7610   -2.2130   -0.7770 o         1 MOL     -0.679268
     83 C27         2.2470   -5.4030   -0.7190 c3        1 MOL      0.540569
     84 C28         2.6160   -6.8390   -1.2420 c3        1 MOL     -0.468025
     85 O15         2.6950   -5.1650    0.6110 oh        1 MOL     -0.653767
     86 H35         4.2640   -3.3840   -0.7010 hn        1 MOL      0.232824
     87 H36         2.5950   -4.7120   -2.7000 h1        1 MOL      0.107225
     88 H37         1.1630   -5.4200   -0.6760 h1        1 MOL     -0.069946
     89 H38         3.0260   -4.2630    0.6730 ho        1 MOL      0.407596
     90 H39         3.6780   -6.8830   -1.4880 hc        1 MOL      0.121668
     91 H40         2.4870   -7.5270   -0.4050 hc        1 MOL      0.121668
     92 H41         2.0300   -7.1460   -2.1040 hc        1 MOL      0.121668
     93 N9          0.5140   -3.2720   -2.4710 n         1 MOL     -0.583295
     94 C29        -0.6640   -2.4680   -2.4840 c3        1 MOL      0.101998
     95 C30        -1.8330   -3.1280   -1.7600 c         1 MOL      0.410022
     96 O16        -2.1030   -4.3050   -2.0270 o         1 MOL     -0.547012
     97 C31        -1.0930   -2.1340   -3.9150 c3        1 MOL      0.171607
     98 C32        -0.0460   -1.3150   -4.6750 c3        1 MOL      0.153857
     99 C33        -2.3040   -1.1570   -3.7530 c3        1 MOL     -0.292824
    100 C34        -0.2630   -1.2700   -6.2160 c3        1 MOL     -0.235917
    101 H42         0.5840   -4.0430   -3.1090 hn        1 MOL      0.300748
    102 H43        -0.5010   -1.4820   -2.0340 h1        1 MOL      0.124992
    103 H44        -1.3280   -3.0340   -4.4810 hc        1 MOL      0.001477
    104 H45         0.8960   -1.8490   -4.5740 hc        1 MOL     -0.032718
    105 H46         0.1390   -0.3430   -4.2110 hc        1 MOL     -0.032718
    106 H47        -3.2200   -1.7440   -3.6660 hc        1 MOL      0.037133
    107 H48        -2.1420   -0.4300   -2.9520 hc        1 MOL      0.037133
    108 H49        -2.4370   -0.6170   -4.6910 hc        1 MOL      0.037133
    109 H50         0.3380   -0.4530   -6.6210 hc        1 MOL      0.051921
    110 H51        -0.0710   -2.2180   -6.7120 hc        1 MOL      0.051921
    111 H52        -1.3160   -1.0850   -6.4240 hc        1 MOL      0.051921
    112 N10        -2.4680   -2.3720   -0.8520 n         1 MOL     -0.168715
    113 C35        -3.7310   -2.7860   -0.2410 c3        1 MOL      0.156753
    114 C36        -5.0100   -2.2250   -0.8480 c         1 MOL      0.235728
    115 O17        -4.8890   -1.2640   -1.6700 o         1 MOL     -0.254768
    116 C37        -3.7840   -2.4470    1.2360 c3        1 MOL     -0.008074
    117 C38        -2.5180   -2.8350    1.9810 c3        1 MOL     -0.272919
    118 O18        -3.8390   -1.0710    1.4230 oh        1 MOL     -0.372099
    119 H53        -2.1180   -1.4330   -0.7020 hn        1 MOL      0.184553
    120 H54        -3.7840   -3.8760   -0.3020 h1        1 MOL      0.060392
    121 H55        -4.6850   -2.9300    1.6230 h1        1 MOL      0.031111
    122 H56        -3.4350   -0.8890    2.2710 ho        1 MOL      0.365620
    123 H57        -1.6400   -2.4350    1.4680 hc        1 MOL      0.082787
    124 H58        -2.4890   -2.5140    3.0250 hc        1 MOL      0.082787
    125 H59        -2.4480   -3.9170    2.0450 hc        1 MOL      0.082787
    126 N11        -6.2440   -2.6540   -0.4810 n         1 MOL     -0.373734
    127 C39        -7.5700   -2.0000   -0.8300 c3        1 MOL     -0.007587
    128 C40        -7.6580   -0.5490   -0.4210 c         1 MOL      0.218479
    129 O19        -8.1540    0.2390   -1.1830 o         1 MOL     -0.453944
    130 C41        -8.6870   -2.5510    0.0520 c3        1 MOL      0.214847
    131 C42        -9.1480   -3.9160   -0.4260 c3        1 MOL     -0.363081
    132 O20        -8.3790   -2.7580    1.4480 oh        1 MOL     -0.572213
    133 H60        -6.2860   -3.5120    0.0520 hn        1 MOL      0.316589
    134 H61        -7.7980   -2.0930   -1.8940 h1        1 MOL      0.154810
    135 H62        -9.6080   -1.9680   -0.0260 h1        1 MOL      0.081182
    136 H63        -9.1890   -2.5790    1.9290 ho        1 MOL      0.377875
    137 H64        -9.4830   -3.8460   -1.4560 hc        1 MOL      0.102050
    138 H65        -8.3880   -4.6600   -0.1880 hc        1 MOL      0.102050
    139 H66       -10.0300   -4.1830    0.1590 hc        1 MOL      0.102050
    140 N12        -7.0520   -0.1470    0.6760 n         1 MOL     -0.162669
    141 C43        -6.9140    1.2790    1.2170 c3        1 MOL     -0.063577
    142 C44        -5.9650    2.0450    0.3460 c         1 MOL      0.356418
    143 O21        -6.3320    3.0980   -0.0990 o         1 MOL     -0.481057
    144 C45        -6.5300    1.3380    2.7470 c3        1 MOL     -0.130258
    145 C46        -7.7800    0.7380    3.4760 c3        1 MOL      0.090127
    146 C47        -7.6090    0.8630    4.9750 c3        1 MOL      0.013607
    147 C48        -8.7800    0.0850    5.5660 c3        1 MOL     -0.093840
    148 N13       -10.1140    0.6910    5.3270 n4        1 MOL     -0.211777
    149 H67        -6.6220   -0.8460    1.2770 hn        1 MOL      0.179333
    150 H68        -7.8600    1.8120    1.1060 h1        1 MOL      0.107977
    151 H69        -6.3710    2.3390    3.1450 hc        1 MOL      0.056397
    152 H70        -5.6000    0.7910    2.8840 hc        1 MOL      0.056397
    153 H71        -7.8760   -0.3360    3.2810 hc        1 MOL     -0.023624
    154 H72        -8.7260    1.1400    3.1260 hc        1 MOL     -0.023624
    155 H73        -7.7180    1.9030    5.2670 hc        1 MOL      0.050976
    156 H74        -6.6400    0.5420    5.3570 hc        1 MOL      0.050976
    157 H75        -8.6150    0.0490    6.6460 hx        1 MOL      0.103179
    158 H76        -8.8150   -0.8750    5.0570 hx        1 MOL      0.103179
    159 H77       -10.0600    1.6800    5.4980 hn        1 MOL      0.264688
    160 H78       -10.3390    0.7420    4.3430 hn        1 MOL      0.264688
    161 H79       -10.8100    0.2710    5.9350 hn        1 MOL      0.264688
    162 N14        -4.8140    1.4650    0.0210 n         1 MOL     -0.040124
    163 C49        -3.7770    2.0890   -0.8350 c3        1 MOL     -0.145402
    164 C50        -4.3420    2.2820   -2.2330 c         1 MOL      0.351466
    165 O22        -4.3390    3.3870   -2.6650 o         1 MOL     -0.515093
    166 C51        -2.5130    1.2730   -0.7560 c3        1 MOL      0.072917
    167 C52        -1.6770    1.6340    0.5250 c3        1 MOL     -0.222207
    168 C53        -0.4100    0.8130    0.7410 c         1 MOL      0.743310
    169 O23        -0.3050   -0.3510    0.3480 o         1 MOL     -0.751992
    170 O24         0.5560    1.3360    1.2770 o         1 MOL     -0.751992
    171 H80        -4.5970    0.6060    0.5140 hn        1 MOL      0.081452
    172 H81        -3.5340    3.0470   -0.3810 h1        1 MOL      0.106751
    173 H82        -1.8900    1.5700   -1.5990 hc        1 MOL      0.062599
    174 H83        -2.6290    0.1890   -0.7200 hc        1 MOL      0.062599
    175 H84        -2.3420    1.4840    1.3890 hc        1 MOL      0.036880
    176 H85        -1.4370    2.7000    0.4870 hc        1 MOL      0.036880
    177 N15        -5.0370    1.3040   -2.8630 n         1 MOL      0.074621
    178 C54        -5.6660    1.3940   -4.2130 c3        1 MOL     -0.303181
    179 H86        -5.0970    2.0870   -4.8330 h1        1 MOL      0.104385
    180 H87        -5.6700    0.4080   -4.6780 h1        1 MOL      0.104385
    181 H88        -6.6900    1.7530   -4.1130 h1        1 MOL      0.104385
    182 H89        -4.9660    0.3880   -2.4320 hn        1 MOL      0.028920
    183 Ca1         2.0030   -0.9390    1.4980 Ca        1 MOL      1.725518
    184 O25         0.7030   -1.1210    3.7760 oh        1 MOL     -0.823206
    185 H90         0.2080   -1.6010    4.4410 ho        1 MOL      0.395943
    186 H91         1.3830   -0.6710    4.2700 ho        1 MOL      0.395943
    187 O26         0.6930   -3.3320    1.9690 oh        1 MOL     -0.823206
    188 H92         0.2390   -3.5670    2.7810 ho        1 MOL      0.395943
    189 H93         0.5160   -4.0620    1.3770 ho        1 MOL      0.395943
@<TRIPOS>BOND
     1    1    2 1   
     2    1    4 1   
     3    1    5 1   
     4    1    6 1   
     5    2    3 2   
     6    2    7 1   
     7    7    8 1   
     8    7   15 1   
     9    8    9 1   
    10    8   11 1   
    11    8   16 1   
    12    9   10 2   
    13    9   19 1   
    14   11   12 1   
    15   11   17 1   
    16   11   18 1   
    17   12   13 1   
    18   12   14 1   
    19   19   20 1   
    20   19   28 1   
    21   20   21 1   
    22   20   23 1   
    23   20   29 1   
    24   21   22 2   
    25   21   41 1   
    26   23   24 1   
    27   23   30 1   
    28   23   31 1   
    29   24   25 1   
    30   24   32 1   
    31   24   33 1   
    32   25   26 1   
    33   25   34 1   
    34   25   35 1   
    35   26   27 1   
    36   26   36 1   
    37   26   37 1   
    38   27   38 1   
    39   27   39 1   
    40   27   40 1   
    41   41   42 1   
    42   41   49 1   
    43   42   43 1   
    44   42   45 1   
    45   42   50 1   
    46   43   44 2   
    47   43   53 1   
    48   45   46 1   
    49   45   51 1   
    50   45   52 1   
    51   46   47 1   
    52   46   48 1   
    53   53   54 1   
    54   53   57 1   
    55   54   55 1   
    56   54   58 1   
    57   54   59 1   
    58   55   56 2   
    59   55   60 1   
    60   60   61 1   
    61   60   68 1   
    62   61   62 1   
    63   61   64 1   
    64   61   69 1   
    65   62   63 2   
    66   62   72 1   
    67   64   65 1   
    68   64   70 1   
    69   64   71 1   
    70   65   66 1   
    71   65   67 1   
    72   72   73 1   
    73   72   76 1   
    74   73   74 1   
    75   73   77 1   
    76   73   78 1   
    77   74   75 2   
    78   74   79 1   
    79   79   80 1   
    80   79   86 1   
    81   80   81 1   
    82   80   83 1   
    83   80   87 1   
    84   81   82 2   
    85   81   93 1   
    86   83   84 1   
    87   83   85 1   
    88   83   88 1   
    89   84   90 1   
    90   84   91 1   
    91   84   92 1   
    92   85   89 1   
    93   93   94 1   
    94   93  101 1   
    95   94   95 1   
    96   94   97 1   
    97   94  102 1   
    98   95   96 2   
    99   95  112 1   
   100   97   98 1   
   101   97   99 1   
   102   97  103 1   
   103   98  100 1   
   104   98  104 1   
   105   98  105 1   
   106   99  106 1   
   107   99  107 1   
   108   99  108 1   
   109  100  109 1   
   110  100  110 1   
   111  100  111 1   
   112  112  113 1   
   113  112  119 1   
   114  113  114 1   
   115  113  116 1   
   116  113  120 1   
   117  114  115 2   
   118  114  126 1   
   119  116  117 1   
   120  116  118 1   
   121  116  121 1   
   122  117  123 1   
   123  117  124 1   
   124  117  125 1   
   125  118  122 1   
   126  126  127 1   
   127  126  133 1   
   128  127  128 1   
   129  127  130 1   
   130  127  134 1   
   131  128  129 2   
   132  128  140 1   
   133  130  131 1   
   134  130  132 1   
   135  130  135 1   
   136  131  137 1   
   137  131  138 1   
   138  131  139 1   
   139  132  136 1   
   140  140  141 1   
   141  140  149 1   
   142  141  142 1   
   143  141  144 1   
   144  141  150 1   
   145  142  143 2   
   146  142  162 1   
   147  144  145 1   
   148  144  151 1   
   149  144  152 1   
   150  145  146 1   
   151  145  153 1   
   152  145  154 1   
   153  146  147 1   
   154  146  155 1   
   155  146  156 1   
   156  147  148 1   
   157  147  157 1   
   158  147  158 1   
   159  148  159 1   
   160  148  160 1   
   161  148  161 1   
   162  162  163 1   
   163  162  171 1   
   164  163  164 1   
   165  163  166 1   
   166  163  172 1   
   167  164  165 2   
   168  164  177 1   
   169  166  167 1   
   170  166  173 1   
   171  166  174 1   
   172  167  168 1   
   173  167  175 1   
   174  167  176 1   
   175  168  169 1   
   176  168  170 1   
   177  177  178 1   
   178  177  182 1   
   179  178  179 1   
   180  178  180 1   
   181  178  181 1   
   182  184  185 1   
   183  184  186 1   
   184  187  188 1   
   185  187  189 1   
@<TRIPOS>SUBSTRUCTURE
     1 MOL         1 TEMP              0 ****  ****    0 ROOT
