@<TRIPOS>MOLECULE
MOL
  172   171     1     0     0
SMALL
resp


@<TRIPOS>ATOM
      1 C1          0.0420    2.8260    5.7180 c3        1 MOL     -0.563611
      2 C2         -0.5420    2.7940    4.2850 c         1 MOL      0.665330
      3 O1          0.1090    3.2680    3.3380 o         1 MOL     -0.557148
      4 H1         -0.7100    2.4750    6.4240 hc        1 MOL      0.150857
      5 H2          0.9170    2.1780    5.7680 hc        1 MOL      0.150857
      6 H3          0.3290    3.8460    5.9710 hc        1 MOL      0.150857
      7 N1         -1.7770    2.2240    4.1060 n         1 MOL     -0.625128
      8 C3         -2.2300    1.8680    2.7960 c3        1 MOL      0.434292
      9 C4         -2.8950    3.0950    2.1280 c         1 MOL      0.394214
     10 O2         -4.0770    3.3840    2.2810 o         1 MOL     -0.550571
     11 C5         -3.2500    0.6990    2.7610 c3        1 MOL     -0.384953
     12 C6         -3.7120    0.3080    1.3320 c         1 MOL      0.646850
     13 O3         -3.4000    0.9920    0.3230 o         1 MOL     -0.679313
     14 O4         -4.4710   -0.7230    1.1920 o         1 MOL     -0.679313
     15 H4         -2.3070    2.1010    4.9650 hn        1 MOL      0.316839
     16 H5         -1.4160    1.7540    2.0910 h1        1 MOL     -0.062555
     17 H6         -4.1300    0.9450    3.3560 hc        1 MOL      0.104528
     18 H7         -2.7900   -0.1780    3.2300 hc        1 MOL      0.104528
     19 N2         -2.0400    3.8350    1.4650 n         1 MOL     -0.289255
     20 C7         -2.2840    5.2250    0.9840 c3        1 MOL      0.017897
     21 C8         -3.2240    5.2360   -0.2350 c         1 MOL      0.444113
     22 O5         -3.4770    6.2920   -0.8120 o         1 MOL     -0.571508
     23 C9         -0.9310    5.8770    0.5800 c3        1 MOL     -0.185982
     24 H8         -1.0790    3.5410    1.4140 hn        1 MOL      0.314856
     25 H9         -2.7470    5.8550    1.7400 h1        1 MOL      0.071643
     26 H10        -1.0780    6.9170    0.3080 hc        1 MOL      0.062740
     27 H11        -0.2480    6.0040    1.4130 hc        1 MOL      0.062740
     28 H12        -0.5390    5.3810   -0.3100 hc        1 MOL      0.062740
     29 N3         -3.7590    4.0740   -0.6250 n         1 MOL      0.048830
     30 C10        -4.8630    3.9610   -1.4600 c3        1 MOL     -0.068915
     31 C11        -6.0800    3.3880   -0.7160 c         1 MOL      0.260263
     32 O6         -7.2150    3.7020   -1.1660 o         1 MOL     -0.534989
     33 C12        -4.5700    2.9880   -2.6650 c3        1 MOL      0.018057
     34 C13        -3.1660    2.9450   -3.1590 c         1 MOL      0.593959
     35 O7         -2.6680    3.9040   -3.7720 o         1 MOL     -0.683475
     36 O8         -2.5750    1.8660   -2.9630 o         1 MOL     -0.683475
     37 H13        -3.4940    3.3240    0.0130 hn        1 MOL     -0.024368
     38 H14        -5.1580    4.9110   -1.9290 h1        1 MOL      0.097833
     39 H15        -5.1460    3.3170   -3.5270 hc        1 MOL     -0.001187
     40 H16        -4.9590    1.9900   -2.4920 hc        1 MOL     -0.001187
     41 N4         -6.0120    2.4950    0.2880 n         1 MOL      0.123527
     42 C14        -7.1490    1.7900    0.8850 c3        1 MOL     -0.242969
     43 C15        -7.6520    0.5920    0.1390 c         1 MOL      0.618181
     44 O9         -8.8300    0.3320    0.0960 o         1 MOL     -0.606106
     45 H17        -5.0940    2.3580    0.6850 hn        1 MOL      0.012411
     46 H18        -7.9550    2.5030    1.0570 h1        1 MOL      0.094006
     47 H19        -6.7260    1.3630    1.7900 h1        1 MOL      0.094006
     48 N5         -6.7710   -0.1760   -0.5480 n         1 MOL     -0.251924
     49 C16        -7.1510   -1.3490   -1.3460 c3        1 MOL     -0.115104
     50 C17        -6.8270   -2.7650   -0.7640 c         1 MOL      0.520475
     51 O10        -6.6360   -3.7220   -1.4380 o         1 MOL     -0.524905
     52 C18        -6.5520   -1.1390   -2.7730 c3        1 MOL     -0.012707
     53 C19        -5.0030   -1.3010   -2.8320 c         1 MOL      0.452658
     54 N6         -4.4880   -2.0730   -3.7500 n         1 MOL     -0.622540
     55 O11        -4.1480   -0.8100   -2.0400 o         1 MOL     -0.533787
     56 H20        -5.7950    0.0220   -0.4060 hn        1 MOL      0.204012
     57 H21        -8.2350   -1.3370   -1.4120 h1        1 MOL      0.101976
     58 H22        -6.8580   -0.1840   -3.2060 hc        1 MOL      0.036083
     59 H23        -6.9620   -1.8760   -3.4660 hc        1 MOL      0.036083
     60 H24        -5.1390   -2.5770   -4.3300 hn        1 MOL      0.312560
     61 H25        -3.4940   -2.2700   -3.6940 hn        1 MOL      0.312560
     62 N7         -6.6620   -2.8310    0.5930 n         1 MOL     -0.304785
     63 C20        -6.5160   -4.0430    1.3160 c3        1 MOL     -0.232733
     64 C21        -5.1170   -4.4970    1.5420 c         1 MOL      0.613956
     65 O12        -4.8620   -5.2780    2.5080 o         1 MOL     -0.602851
     66 H26        -6.8330   -2.0040    1.1570 hn        1 MOL      0.266722
     67 H27        -7.0890   -4.8370    0.8430 h1        1 MOL      0.110548
     68 H28        -6.8650   -3.9540    2.3490 h1        1 MOL      0.110548
     69 N8         -4.1600   -3.8490    0.8640 n         1 MOL     -0.244685
     70 C22        -2.7410   -4.2700    0.7390 c3        1 MOL     -0.420508
     71 C23        -1.6290   -3.2200    0.7950 c         1 MOL      0.819488
     72 O13        -1.5760   -2.1640    0.1450 o         1 MOL     -0.534619
     73 C24        -2.6270   -5.0010   -0.6170 c3        1 MOL      0.275111
     74 C25        -3.4600   -6.2360   -0.5990 c3        1 MOL     -0.374291
     75 O14        -3.1000   -4.2470   -1.7610 oh        1 MOL     -0.588653
     76 H29        -4.3710   -2.9790    0.4050 hn        1 MOL      0.279058
     77 H30        -2.5410   -5.0350    1.4860 h1        1 MOL      0.177900
     78 H31        -1.5780   -5.2280   -0.7680 h1        1 MOL      0.088998
     79 H32        -3.9830   -4.4840   -2.0400 ho        1 MOL      0.397917
     80 H33        -3.2440   -6.8590   -1.4820 hc        1 MOL      0.096178
     81 H34        -3.2100   -6.8580    0.2600 hc        1 MOL      0.096178
     82 H35        -4.5290   -6.1190   -0.4450 hc        1 MOL      0.096178
     83 N9         -0.5010   -3.5480    1.5180 n         1 MOL     -0.665079
     84 C26         0.6570   -2.6700    1.5350 c3        1 MOL      0.051101
     85 C27         1.4750   -2.9350    0.2570 c         1 MOL      0.530896
     86 O15         1.6710   -4.0710   -0.1430 o         1 MOL     -0.575161
     87 C28         1.4880   -3.0150    2.8530 c3        1 MOL      0.092437
     88 C29         0.6090   -3.2030    4.1170 c3        1 MOL      0.155645
     89 C30         2.6350   -2.0430    3.0910 c3        1 MOL      0.030105
     90 C31         1.3980   -3.7030    5.3220 c3        1 MOL     -0.281045
     91 H36        -0.4040   -4.4840    1.8700 hn        1 MOL      0.327930
     92 H37         0.3160   -1.6410    1.6300 h1        1 MOL      0.086662
     93 H38         1.9790   -3.9830    2.7790 hc        1 MOL     -0.003560
     94 H39        -0.1580   -3.9290    3.8720 hc        1 MOL     -0.028235
     95 H40         0.0780   -2.2890    4.3840 hc        1 MOL     -0.028235
     96 H41         3.3020   -2.2500    3.9220 hc        1 MOL     -0.007694
     97 H42         3.2730   -2.1630    2.2020 hc        1 MOL     -0.007694
     98 H43         2.3760   -0.9810    3.1090 hc        1 MOL     -0.007694
     99 H44         1.8570   -4.6780    5.1220 hc        1 MOL      0.053457
    100 H45         2.1800   -2.9520    5.4550 hc        1 MOL      0.053457
    101 H46         0.7680   -3.6920    6.2160 hc        1 MOL      0.053457
    102 N10         2.0070   -1.8060   -0.3300 n         1 MOL     -0.106521
    103 C32         2.9610   -1.8480   -1.5010 c3        1 MOL      0.083176
    104 C33         4.3730   -1.4480   -0.9760 c         1 MOL      0.476894
    105 O16         4.5050   -1.0340    0.2060 o         1 MOL     -0.369108
    106 C34         2.5790   -0.8690   -2.6690 c3        1 MOL     -0.351245
    107 C35         1.1660   -1.0080   -3.1840 c         1 MOL      0.837439
    108 O17         0.8620   -1.9000   -4.0500 o         1 MOL     -0.720365
    109 O18         0.2670   -0.1810   -2.8570 o         1 MOL     -0.720365
    110 H47         1.8410   -0.9150    0.1110 hn        1 MOL     -0.345422
    111 H48         3.0330   -2.8040   -2.0240 h1        1 MOL      0.065756
    112 H49         3.2440   -1.0110   -3.5130 hc        1 MOL      0.129002
    113 H50         2.7730    0.1410   -2.3130 hc        1 MOL      0.129002
    114 N11         5.4750   -1.5720   -1.7040 n         1 MOL     -0.726406
    115 C36         6.7900   -1.2660   -1.2020 c3        1 MOL      0.569334
    116 C37         7.0310    0.2140   -0.8410 c         1 MOL      0.257057
    117 O19         7.4430    0.4180    0.2690 o         1 MOL     -0.454857
    118 C38         8.0220   -1.8840   -1.9810 c3        1 MOL     -0.337158
    119 C39         9.3680   -1.6410   -1.3580 ca        1 MOL      0.098198
    120 C40        10.3580   -0.9300   -2.0700 ca        1 MOL     -0.131721
    121 C41         9.6110   -1.9730   -0.0080 ca        1 MOL     -0.131721
    122 C42        11.6430   -0.7370   -1.5260 ca        1 MOL     -0.132825
    123 C43        10.8320   -1.6010    0.6170 ca        1 MOL     -0.132825
    124 C44        11.8610   -1.0350   -0.1710 ca        1 MOL     -0.120015
    125 H51         5.4220   -1.9990   -2.6180 hn        1 MOL      0.338534
    126 H52         6.8070   -1.8120   -0.2580 h1        1 MOL      0.032187
    127 H53         8.0510   -1.4790   -2.9940 hc        1 MOL      0.083767
    128 H54         7.8550   -2.9560   -1.9120 hc        1 MOL      0.083767
    129 H55        10.2230   -0.6750   -3.1040 ha        1 MOL      0.107044
    130 H56         8.8280   -2.4570    0.5580 ha        1 MOL      0.107044
    131 H57        12.3940   -0.2140   -2.0990 ha        1 MOL      0.116131
    132 H58        11.0520   -1.7800    1.6640 ha        1 MOL      0.116131
    133 H59        12.7790   -0.7310    0.3150 ha        1 MOL      0.108694
    134 N12         6.6220    1.1920   -1.6830 n         1 MOL     -0.048342
    135 C45         6.3700    2.6170   -1.2530 c3        1 MOL      0.001867
    136 C46         5.5030    2.8720    0.0320 c         1 MOL      0.331277
    137 O20         5.4010    4.0370    0.4610 o         1 MOL     -0.528250
    138 C47         5.7120    3.2950   -2.4940 c3        1 MOL     -0.206806
    139 C48         6.3060    2.5340   -3.6760 c3        1 MOL     -0.138146
    140 C49         6.5430    1.1740   -3.1310 c3        1 MOL      0.460854
    141 H60         7.3820    2.9670   -1.0050 h1        1 MOL      0.062358
    142 H61         4.6320    3.2020   -2.3370 hc        1 MOL      0.117370
    143 H62         6.0370    4.3310   -2.6290 hc        1 MOL      0.117370
    144 H63         5.5910    2.4440   -4.4990 hc        1 MOL      0.041993
    145 H64         7.2480    2.9840   -3.9790 hc        1 MOL      0.041993
    146 H65         5.8220    0.4360   -3.4990 h1        1 MOL     -0.136729
    147 H66         7.5170    0.8400   -3.4770 h1        1 MOL     -0.136729
    148 N13         4.8490    1.8520    0.6000 n         1 MOL     -0.154025
    149 C50         3.9490    1.9700    1.7410 c3        1 MOL      0.031980
    150 C51         4.5470    1.2240    2.9130 c         1 MOL      0.496713
    151 O21         4.4210    1.6080    4.0530 o         1 MOL     -0.575378
    152 C52         2.5850    1.4180    1.3800 c3        1 MOL      0.025885
    153 C53         1.8670    2.2310    0.3120 c3        1 MOL      0.437780
    154 C54         0.5780    1.5520   -0.1370 c         1 MOL      0.568571
    155 O22        -0.1900    2.0360   -0.8910 o         1 MOL     -0.670311
    156 O23         0.3040    0.3580    0.2200 o         1 MOL     -0.670311
    157 H67         4.9880    0.9620    0.1400 hn        1 MOL     -0.022568
    158 H68         3.7960    2.9580    2.1760 h1        1 MOL      0.081532
    159 H69         2.0150    1.4500    2.3110 hc        1 MOL      0.044168
    160 H70         2.6890    0.3690    1.0780 hc        1 MOL      0.044168
    161 H71         2.4830    2.3750   -0.5790 hc        1 MOL     -0.117120
    162 H72         1.6970    3.2420    0.6790 hc        1 MOL     -0.117120
    163 N14         5.4080    0.2180    2.6100 n         1 MOL     -0.210400
    164 C55         6.2500   -0.5700    3.6270 c3        1 MOL     -0.055173
    165 H73         7.2740   -0.6540    3.2620 h1        1 MOL      0.051078
    166 H74         6.2480   -0.0480    4.5840 h1        1 MOL      0.051078
    167 H75         5.8270   -1.5670    3.7550 h1        1 MOL      0.051078
    168 H76         5.3220   -0.1420    1.6770 hn        1 MOL      0.107988
    169 Ca1        -1.7660    0.0100   -1.3230 Ca        1 MOL      1.702050
    170 O24        -1.5930   -2.1550   -3.0880 oh        1 MOL     -0.780295
    171 H77        -1.6370   -3.0370   -2.7250 ho        1 MOL      0.373580
    172 H78        -0.7320   -2.0910   -3.4940 ho        1 MOL      0.373580
@<TRIPOS>BOND
     1    1    2 1   
     2    1    4 1   
     3    1    5 1   
     4    1    6 1   
     5    2    3 2   
     6    2    7 1   
     7    7    8 1   
     8    7   15 1   
     9    8    9 1   
    10    8   11 1   
    11    8   16 1   
    12    9   10 2   
    13    9   19 1   
    14   11   12 1   
    15   11   17 1   
    16   11   18 1   
    17   12   13 1   
    18   12   14 1   
    19   19   20 1   
    20   19   24 1   
    21   20   21 1   
    22   20   23 1   
    23   20   25 1   
    24   21   22 2   
    25   21   29 1   
    26   23   26 1   
    27   23   27 1   
    28   23   28 1   
    29   29   30 1   
    30   29   37 1   
    31   30   31 1   
    32   30   33 1   
    33   30   38 1   
    34   31   32 2   
    35   31   41 1   
    36   33   34 1   
    37   33   39 1   
    38   33   40 1   
    39   34   35 1   
    40   34   36 1   
    41   41   42 1   
    42   41   45 1   
    43   42   43 1   
    44   42   46 1   
    45   42   47 1   
    46   43   44 2   
    47   43   48 1   
    48   48   49 1   
    49   48   56 1   
    50   49   50 1   
    51   49   52 1   
    52   49   57 1   
    53   50   51 2   
    54   50   62 1   
    55   52   53 1   
    56   52   58 1   
    57   52   59 1   
    58   53   54 1   
    59   53   55 2   
    60   54   60 1   
    61   54   61 1   
    62   62   63 1   
    63   62   66 1   
    64   63   64 1   
    65   63   67 1   
    66   63   68 1   
    67   64   65 2   
    68   64   69 1   
    69   69   70 1   
    70   69   76 1   
    71   70   71 1   
    72   70   73 1   
    73   70   77 1   
    74   71   72 2   
    75   71   83 1   
    76   73   74 1   
    77   73   75 1   
    78   73   78 1   
    79   74   80 1   
    80   74   81 1   
    81   74   82 1   
    82   75   79 1   
    83   83   84 1   
    84   83   91 1   
    85   84   85 1   
    86   84   87 1   
    87   84   92 1   
    88   85   86 2   
    89   85  102 1   
    90   87   88 1   
    91   87   89 1   
    92   87   93 1   
    93   88   90 1   
    94   88   94 1   
    95   88   95 1   
    96   89   96 1   
    97   89   97 1   
    98   89   98 1   
    99   90   99 1   
   100   90  100 1   
   101   90  101 1   
   102  102  103 1   
   103  102  110 1   
   104  103  104 1   
   105  103  106 1   
   106  103  111 1   
   107  104  105 2   
   108  104  114 1   
   109  106  107 1   
   110  106  112 1   
   111  106  113 1   
   112  107  108 1   
   113  107  109 1   
   114  114  115 1   
   115  114  125 1   
   116  115  116 1   
   117  115  118 1   
   118  115  126 1   
   119  116  117 2   
   120  116  134 1   
   121  118  119 1   
   122  118  127 1   
   123  118  128 1   
   124  119  120 ar  
   125  119  121 ar  
   126  120  122 ar  
   127  120  129 1   
   128  121  123 ar  
   129  121  130 1   
   130  122  124 ar  
   131  122  131 1   
   132  123  124 ar  
   133  123  132 1   
   134  124  133 1   
   135  134  135 1   
   136  134  140 1   
   137  135  136 1   
   138  135  138 1   
   139  135  141 1   
   140  136  137 2   
   141  136  148 1   
   142  138  139 1   
   143  138  142 1   
   144  138  143 1   
   145  139  140 1   
   146  139  144 1   
   147  139  145 1   
   148  140  146 1   
   149  140  147 1   
   150  148  149 1   
   151  148  157 1   
   152  149  150 1   
   153  149  152 1   
   154  149  158 1   
   155  150  151 2   
   156  150  163 1   
   157  152  153 1   
   158  152  159 1   
   159  152  160 1   
   160  153  154 1   
   161  153  161 1   
   162  153  162 1   
   163  154  155 1   
   164  154  156 1   
   165  163  164 1   
   166  163  168 1   
   167  164  165 1   
   168  164  166 1   
   169  164  167 1   
   170  170  171 1   
   171  170  172 1   
@<TRIPOS>SUBSTRUCTURE
     1 MOL         1 TEMP              0 ****  ****    0 ROOT
