@<TRIPOS>MOLECULE
MOL
  175   173     1     0     0
SMALL
resp


@<TRIPOS>ATOM
      1 C1          0.0720    3.8100    5.5650 c3        1 MOL     -0.358864
      2 C2         -0.4890    3.7230    4.1150 c         1 MOL      0.737454
      3 O1          0.2050    3.8890    3.1430 o         1 MOL     -0.553747
      4 H1          1.0200    4.3490    5.5560 hc        1 MOL      0.081189
      5 H2         -0.6400    4.3370    6.2000 hc        1 MOL      0.081189
      6 H3          0.2310    2.8040    5.9540 hc        1 MOL      0.081189
      7 N1         -1.7470    3.5780    3.9290 n         1 MOL     -0.585081
      8 C3         -2.4240    3.4360    2.5890 c3        1 MOL      0.150108
      9 C4         -2.5750    4.6320    1.6260 c         1 MOL      0.629306
     10 O2         -2.9510    5.7150    2.1040 o         1 MOL     -0.609843
     11 C5         -3.8340    2.8610    2.8470 c3        1 MOL     -0.172456
     12 C6         -4.5430    2.3070    1.6030 c         1 MOL      0.644248
     13 O3         -5.8130    2.2400    1.5420 o         1 MOL     -0.667152
     14 O4         -3.8790    1.9550    0.5810 o         1 MOL     -0.667152
     15 H4         -2.2320    3.4230    4.7990 hn        1 MOL      0.290332
     16 H5         -1.9050    2.6640    2.0160 h1        1 MOL     -0.000660
     17 H6         -4.4740    3.5840    3.3490 hc        1 MOL      0.029946
     18 H7         -3.8420    2.0560    3.5740 hc        1 MOL      0.029946
     19 N2         -2.4070    4.5410    0.3220 n         1 MOL     -0.471309
     20 C7         -2.8030    5.5450   -0.6460 c3        1 MOL      0.256364
     21 C8         -3.5570    4.9430   -1.8330 c         1 MOL      0.554954
     22 O5         -3.6230    5.5240   -2.9290 o         1 MOL     -0.581669
     23 C9         -1.5770    6.3690   -0.9470 c3        1 MOL     -0.246526
     24 H8         -2.1170    3.6540   -0.0630 hn        1 MOL      0.395761
     25 H9         -3.5300    6.2550   -0.2400 h1        1 MOL      0.009799
     26 H10        -1.2710    6.8320   -0.0060 hc        1 MOL      0.055790
     27 H11        -0.8240    5.6750   -1.3250 hc        1 MOL      0.055790
     28 H12        -1.7340    7.1180   -1.7230 hc        1 MOL      0.055790
     29 N3         -4.2790    3.7900   -1.6950 n         1 MOL     -0.500004
     30 C10        -5.0970    3.2320   -2.7680 c3        1 MOL      0.059227
     31 C11        -6.3900    2.4350   -2.4160 c         1 MOL      0.483966
     32 O6         -7.2030    2.3300   -3.3060 o         1 MOL     -0.568856
     33 C12        -4.2060    2.3460   -3.6470 c3        1 MOL     -0.073312
     34 C13        -3.3940    1.2810   -2.9620 c         1 MOL      0.642703
     35 O7         -3.6750    0.7490   -1.8890 o         1 MOL     -0.708655
     36 O8         -2.3180    0.9620   -3.5750 o         1 MOL     -0.708655
     37 H13        -4.1390    3.2180   -0.8810 hn        1 MOL      0.190177
     38 H14        -5.5070    4.0380   -3.3820 h1        1 MOL      0.067332
     39 H15        -3.4460    3.0020   -4.0740 hc        1 MOL      0.031628
     40 H16        -4.7600    1.9910   -4.5120 hc        1 MOL      0.031628
     41 N4         -6.5280    1.9220   -1.1700 n         1 MOL     -0.241925
     42 C14        -7.7060    1.0920   -0.7960 c3        1 MOL     -0.246812
     43 C15        -7.6120   -0.4000   -1.0330 c         1 MOL      0.587694
     44 O9         -8.5320   -1.1370   -0.7280 o         1 MOL     -0.611192
     45 H17        -5.8640    2.0250   -0.4230 hn        1 MOL      0.238579
     46 H18        -8.5920    1.4850   -1.3030 h1        1 MOL      0.116944
     47 H19        -7.9530    1.1640    0.2640 h1        1 MOL      0.116944
     48 N5         -6.4230   -0.8180   -1.5900 n         1 MOL     -0.340444
     49 C16        -6.2030   -2.1060   -2.1050 c3        1 MOL      0.105032
     50 C17        -6.0900   -3.2120   -0.9650 c         1 MOL      0.360438
     51 O10        -5.7960   -4.3570   -1.3210 o         1 MOL     -0.495824
     52 C18        -5.0560   -2.0800   -3.1340 c3        1 MOL     -0.197445
     53 C19        -3.6630   -2.1440   -2.5250 c         1 MOL      0.562514
     54 N6         -2.6710   -2.4870   -3.2990 n         1 MOL     -0.497522
     55 O11        -3.4550   -1.9780   -1.3320 o         1 MOL     -0.662023
     56 H20        -5.7900   -0.0870   -1.8900 hn        1 MOL      0.246212
     57 H21        -7.1490   -2.2640   -2.6290 h1        1 MOL      0.069570
     58 H22        -5.1950   -1.1890   -3.7510 hc        1 MOL      0.065250
     59 H23        -5.1700   -2.9420   -3.7810 hc        1 MOL      0.065250
     60 H24        -2.8420   -2.5110   -4.2960 hn        1 MOL      0.304713
     61 H25        -1.7530   -2.4270   -2.8780 hn        1 MOL      0.304713
     62 N7         -6.2760   -2.9670    0.3280 n         1 MOL     -0.194236
     63 C20        -6.2080   -3.9600    1.4260 c3        1 MOL     -0.272050
     64 C21        -4.8450   -4.6360    1.7000 c         1 MOL      0.517780
     65 O12        -4.8310   -5.5150    2.5320 o         1 MOL     -0.565887
     66 H26        -6.6350   -2.0850    0.6750 hn        1 MOL      0.271420
     67 H27        -6.9810   -4.7200    1.2950 h1        1 MOL      0.120386
     68 H28        -6.4530   -3.4550    2.3620 h1        1 MOL      0.120386
     69 N8         -3.7930   -4.1550    0.9970 n         1 MOL      0.055742
     70 C22        -2.4190   -4.6170    1.1150 c3        1 MOL     -0.495678
     71 C23        -1.3940   -3.4730    1.2630 c         1 MOL      0.700817
     72 O13        -1.5110   -2.3710    0.7360 o         1 MOL     -0.529564
     73 C24        -2.0430   -5.4600   -0.1000 c3        1 MOL      0.695073
     74 C25        -2.8290   -6.7890   -0.4410 c3        1 MOL     -0.381381
     75 O14        -2.1970   -4.7430   -1.2740 oh        1 MOL     -0.672560
     76 H29        -4.0320   -3.3110    0.4940 hn        1 MOL      0.052842
     77 H30        -2.3160   -5.3010    1.9590 h1        1 MOL      0.107657
     78 H31        -1.0100   -5.7990   -0.0890 h1        1 MOL     -0.052588
     79 H32        -2.6800   -3.9290   -1.1140 ho        1 MOL      0.376338
     80 H33        -3.9080   -6.6920   -0.2840 hc        1 MOL      0.074441
     81 H34        -2.5930   -7.0620   -1.4630 hc        1 MOL      0.074441
     82 H35        -2.4290   -7.5330    0.2460 hc        1 MOL      0.074441
     83 N9         -0.3680   -3.7430    2.0560 n         1 MOL     -0.490583
     84 C26         0.8660   -2.9310    2.0500 c3        1 MOL     -0.080978
     85 C27         1.7150   -3.2290    0.7770 c         1 MOL      0.471811
     86 O15         2.1480   -4.3470    0.5590 o         1 MOL     -0.557339
     87 C28         1.6340   -3.0390    3.3800 c3        1 MOL      0.065343
     88 C29         0.9340   -2.2150    4.4270 c3        1 MOL      0.176292
     89 C30         3.1810   -2.6530    3.3230 c3        1 MOL     -0.034001
     90 C31         1.5960   -2.2720    5.8280 c3        1 MOL     -0.307632
     91 H36        -0.2970   -4.6790    2.4330 hn        1 MOL      0.287534
     92 H37         0.5330   -1.9050    1.9650 h1        1 MOL      0.036820
     93 H38         1.6010   -4.0450    3.8000 hc        1 MOL      0.021577
     94 H39        -0.0650   -2.5990    4.6230 hc        1 MOL     -0.017040
     95 H40         0.9260   -1.1800    4.0600 hc        1 MOL     -0.017040
     96 H41         3.6520   -3.1120    4.1900 hc        1 MOL     -0.004390
     97 H42         3.7070   -3.0350    2.4460 hc        1 MOL     -0.004390
     98 H43         3.3860   -1.5920    3.2220 hc        1 MOL     -0.004390
     99 H44         2.2790   -1.4230    5.8310 hc        1 MOL      0.063834
    100 H45         0.8910   -2.1090    6.6480 hc        1 MOL      0.063834
    101 H46         1.9510   -3.2860    6.0260 hc        1 MOL      0.063834
    102 N10         2.0590   -2.1280    0.0740 n         1 MOL     -0.146021
    103 C32         2.9810   -2.0570   -1.0370 c3        1 MOL      0.061865
    104 C33         4.4050   -1.4940   -0.6850 c         1 MOL      0.250527
    105 O16         4.4890   -0.9550    0.4560 o         1 MOL     -0.247951
    106 C34         2.3020   -1.2120   -2.1870 c3        1 MOL     -0.170474
    107 C35         0.7420   -1.3180   -2.0490 c         1 MOL      0.721846
    108 O17         0.0580   -0.5730   -1.2980 o         1 MOL     -0.669632
    109 O18         0.1870   -2.1160   -2.8100 o         1 MOL     -0.669632
    110 H47         1.7540   -1.2700    0.5090 hn        1 MOL      0.152370
    111 H48         3.1080   -3.0670   -1.4150 h1        1 MOL      0.076890
    112 H49         2.6360   -1.6250   -3.1330 hc        1 MOL      0.036418
    113 H50         2.6050   -0.1620   -2.1890 hc        1 MOL      0.036418
    114 N11         5.4240   -1.6690   -1.5040 n         1 MOL     -0.474251
    115 C36         6.7720   -1.3220   -1.2190 c3        1 MOL      0.421214
    116 C37         7.1030    0.2110   -1.1000 c         1 MOL      0.190821
    117 O19         7.8760    0.5910   -0.1850 o         1 MOL     -0.437406
    118 C38         7.7640   -2.1120   -2.1130 c3        1 MOL     -0.232462
    119 C39         9.2400   -1.7680   -2.0480 ca        1 MOL      0.151604
    120 C40         9.9360   -1.9580   -0.8430 ca        1 MOL     -0.207466
    121 C41         9.8300   -1.1700   -3.1570 ca        1 MOL     -0.207466
    122 C42        11.2170   -1.3290   -0.6590 ca        1 MOL     -0.110615
    123 C43        11.1610   -0.6560   -3.0000 ca        1 MOL     -0.110615
    124 C44        11.8180   -0.7280   -1.7280 ca        1 MOL     -0.086155
    125 H51         5.4090   -2.0580   -2.4290 hn        1 MOL      0.269808
    126 H52         6.9380   -1.7600   -0.2340 h1        1 MOL      0.026989
    127 H53         7.4330   -2.0250   -3.1500 hc        1 MOL      0.054494
    128 H54         7.6690   -3.1400   -1.7630 hc        1 MOL      0.054494
    129 H55         9.3500   -2.3600   -0.0280 ha        1 MOL      0.131794
    130 H56         9.2400   -1.1020   -4.0480 ha        1 MOL      0.131794
    131 H57        11.8080   -1.4430    0.2360 ha        1 MOL      0.113971
    132 H58        11.6080   -0.0500   -3.7700 ha        1 MOL      0.113971
    133 H59        12.7970   -0.2860   -1.6070 ha        1 MOL      0.094209
    134 N12         6.3370    1.0640   -1.8220 n         1 MOL     -0.047745
    135 C45         6.2360    2.5330   -1.5190 c3        1 MOL     -0.070969
    136 C46         5.5450    2.9280   -0.2630 c         1 MOL      0.290520
    137 O20         5.7520    4.0480    0.2370 o         1 MOL     -0.483143
    138 C47         5.4150    2.9800   -2.6810 c3        1 MOL      0.098697
    139 C48         5.7560    2.0850   -3.9310 c3        1 MOL     -0.145683
    140 C49         5.8680    0.7980   -3.1820 c3        1 MOL      0.079000
    141 H60         7.2230    2.9590   -1.7120 h1        1 MOL      0.094243
    142 H61         4.3540    3.0110   -2.4520 hc        1 MOL      0.003051
    143 H62         5.6850    4.0020   -2.9540 hc        1 MOL      0.003051
    144 H63         4.9600    2.0570   -4.6730 hc        1 MOL      0.054248
    145 H64         6.7420    2.3710   -4.3150 hc        1 MOL      0.054248
    146 H65         4.8660    0.3650   -3.1830 h1        1 MOL      0.007322
    147 H66         6.4870    0.1740   -3.8340 h1        1 MOL      0.007322
    148 N13         4.6790    2.0140    0.2500 n         1 MOL     -0.014887
    149 C50         4.0840    2.1620    1.6060 c3        1 MOL     -0.064620
    150 C51         5.0080    1.5690    2.7870 c         1 MOL      0.501432
    151 O21         5.2930    2.2460    3.7660 o         1 MOL     -0.565463
    152 C52         2.6430    1.6320    1.6920 c3        1 MOL     -0.233760
    153 C53         1.7920    2.4150    0.6660 c3        1 MOL     -0.109816
    154 C54         0.3680    1.9980    0.6840 c         1 MOL      0.563767
    155 O22        -0.1010    1.0820    1.4770 o         1 MOL     -0.731854
    156 O23        -0.5180    2.4780   -0.1010 o         1 MOL     -0.731854
    157 H67         4.3320    1.2250   -0.2820 hn        1 MOL      0.151716
    158 H68         4.0270    3.2440    1.7060 h1        1 MOL      0.096859
    159 H69         2.1940    1.7220    2.6810 hc        1 MOL      0.114263
    160 H70         2.6670    0.5700    1.4630 hc        1 MOL      0.114263
    161 H71         2.2370    2.2170   -0.3070 hc        1 MOL      0.085103
    162 H72         1.8380    3.4830    0.8870 hc        1 MOL      0.085103
    163 N14         5.6150    0.3920    2.6550 n         1 MOL     -0.155448
    164 C55         6.8560   -0.0830    3.3390 c3        1 MOL     -0.211029
    165 H73         7.7160    0.0880    2.6910 h1        1 MOL      0.089735
    166 H74         6.9890    0.4650    4.2720 h1        1 MOL      0.089735
    167 H75         6.7690   -1.1490    3.5520 h1        1 MOL      0.089735
    168 H76         5.3060   -0.1430    1.8520 hn        1 MOL      0.047380
    169 Ca1        -2.0210    0.1210    0.0250 Ca        1 MOL      1.774997
    170 O24        -3.9250   -1.1120    1.6320 oh        1 MOL     -0.821444
    171 H77        -3.4120   -0.9190    2.4210 ho        1 MOL      0.389640
    172 H78        -4.8350   -1.0430    1.9330 ho        1 MOL      0.389640
    173 O25        -1.8700   -0.0490    2.9150 oh        1 MOL     -0.821444
    174 H79        -2.1080    0.1130    3.8280 ho        1 MOL      0.389640
    175 H80        -1.1280    0.5340    2.7570 ho        1 MOL      0.389640
@<TRIPOS>BOND
     1    1    2 1   
     2    1    4 1   
     3    1    5 1   
     4    1    6 1   
     5    2    3 2   
     6    2    7 1   
     7    7    8 1   
     8    7   15 1   
     9    8    9 1   
    10    8   11 1   
    11    8   16 1   
    12    9   10 2   
    13    9   19 1   
    14   11   12 1   
    15   11   17 1   
    16   11   18 1   
    17   12   13 1   
    18   12   14 1   
    19   19   20 1   
    20   19   24 1   
    21   20   21 1   
    22   20   23 1   
    23   20   25 1   
    24   21   22 2   
    25   21   29 1   
    26   23   26 1   
    27   23   27 1   
    28   23   28 1   
    29   29   30 1   
    30   29   37 1   
    31   30   31 1   
    32   30   33 1   
    33   30   38 1   
    34   31   32 2   
    35   31   41 1   
    36   33   34 1   
    37   33   39 1   
    38   33   40 1   
    39   34   35 1   
    40   34   36 1   
    41   41   42 1   
    42   41   45 1   
    43   42   43 1   
    44   42   46 1   
    45   42   47 1   
    46   43   44 2   
    47   43   48 1   
    48   48   49 1   
    49   48   56 1   
    50   49   50 1   
    51   49   52 1   
    52   49   57 1   
    53   50   51 2   
    54   50   62 1   
    55   52   53 1   
    56   52   58 1   
    57   52   59 1   
    58   53   54 1   
    59   53   55 2   
    60   54   60 1   
    61   54   61 1   
    62   62   63 1   
    63   62   66 1   
    64   63   64 1   
    65   63   67 1   
    66   63   68 1   
    67   64   65 2   
    68   64   69 1   
    69   69   70 1   
    70   69   76 1   
    71   70   71 1   
    72   70   73 1   
    73   70   77 1   
    74   71   72 2   
    75   71   83 1   
    76   73   74 1   
    77   73   75 1   
    78   73   78 1   
    79   74   80 1   
    80   74   81 1   
    81   74   82 1   
    82   75   79 1   
    83   83   84 1   
    84   83   91 1   
    85   84   85 1   
    86   84   87 1   
    87   84   92 1   
    88   85   86 2   
    89   85  102 1   
    90   87   88 1   
    91   87   89 1   
    92   87   93 1   
    93   88   90 1   
    94   88   94 1   
    95   88   95 1   
    96   89   96 1   
    97   89   97 1   
    98   89   98 1   
    99   90   99 1   
   100   90  100 1   
   101   90  101 1   
   102  102  103 1   
   103  102  110 1   
   104  103  104 1   
   105  103  106 1   
   106  103  111 1   
   107  104  105 2   
   108  104  114 1   
   109  106  107 1   
   110  106  112 1   
   111  106  113 1   
   112  107  108 1   
   113  107  109 1   
   114  114  115 1   
   115  114  125 1   
   116  115  116 1   
   117  115  118 1   
   118  115  126 1   
   119  116  117 2   
   120  116  134 1   
   121  118  119 1   
   122  118  127 1   
   123  118  128 1   
   124  119  120 ar  
   125  119  121 ar  
   126  120  122 ar  
   127  120  129 1   
   128  121  123 ar  
   129  121  130 1   
   130  122  124 ar  
   131  122  131 1   
   132  123  124 ar  
   133  123  132 1   
   134  124  133 1   
   135  134  135 1   
   136  134  140 1   
   137  135  136 1   
   138  135  138 1   
   139  135  141 1   
   140  136  137 2   
   141  136  148 1   
   142  138  139 1   
   143  138  142 1   
   144  138  143 1   
   145  139  140 1   
   146  139  144 1   
   147  139  145 1   
   148  140  146 1   
   149  140  147 1   
   150  148  149 1   
   151  148  157 1   
   152  149  150 1   
   153  149  152 1   
   154  149  158 1   
   155  150  151 2   
   156  150  163 1   
   157  152  153 1   
   158  152  159 1   
   159  152  160 1   
   160  153  154 1   
   161  153  161 1   
   162  153  162 1   
   163  154  155 1   
   164  154  156 1   
   165  163  164 1   
   166  163  168 1   
   167  164  165 1   
   168  164  166 1   
   169  164  167 1   
   170  170  171 1   
   171  170  172 1   
   172  173  174 1   
   173  173  175 1   
@<TRIPOS>SUBSTRUCTURE
     1 MOL         1 TEMP              0 ****  ****    0 ROOT
