@<TRIPOS>MOLECULE
MOL
  175   173     1     0     0
SMALL
resp


@<TRIPOS>ATOM
      1 C1          0.4450    3.3870    5.8380 c3        1 MOL     -0.386092
      2 C2         -0.1460    3.5160    4.4660 c         1 MOL      0.663020
      3 O1          0.5770    3.8350    3.5030 o         1 MOL     -0.530072
      4 H1          0.6430    4.3790    6.2420 hc        1 MOL      0.100337
      5 H2         -0.2550    2.8640    6.4880 hc        1 MOL      0.100337
      6 H3          1.3770    2.8250    5.7810 hc        1 MOL      0.100337
      7 N1         -1.4470    3.2790    4.2670 n         1 MOL     -0.605169
      8 C3         -2.0300    3.1620    2.8860 c3        1 MOL      0.184170
      9 C4         -2.2200    4.5120    2.0500 c         1 MOL      0.570223
     10 O2         -2.2520    5.6210    2.5880 o         1 MOL     -0.578028
     11 C5         -3.3400    2.4600    3.0600 c3        1 MOL     -0.351350
     12 C6         -4.0710    2.4050    1.7070 c         1 MOL      0.692654
     13 O3         -3.4290    1.9230    0.7780 o         1 MOL     -0.618028
     14 O4         -5.0790    3.1260    1.5710 o         1 MOL     -0.618028
     15 H4         -1.9530    3.1280    5.1290 hn        1 MOL      0.334358
     16 H5         -1.3310    2.5320    2.3370 h1        1 MOL      0.012663
     17 H6         -3.8860    3.0710    3.7820 hc        1 MOL      0.053686
     18 H7         -3.3020    1.4270    3.4170 hc        1 MOL      0.053686
     19 N2         -2.3730    4.5010    0.7440 n         1 MOL     -0.336952
     20 C7         -2.4020    5.4720   -0.3110 c3        1 MOL      0.290671
     21 C8         -3.3060    5.1050   -1.4810 c         1 MOL      0.361971
     22 O5         -3.3680    5.8860   -2.4160 o         1 MOL     -0.560089
     23 C9         -0.9870    5.6830   -0.7600 c3        1 MOL     -0.279122
     24 H8         -2.3670    3.5470    0.4080 hn        1 MOL      0.234837
     25 H9         -2.7810    6.3960    0.1290 h1        1 MOL      0.010925
     26 H10        -0.8960    6.2790   -1.6660 hc        1 MOL      0.068637
     27 H11        -0.4690    6.2240    0.0300 hc        1 MOL      0.068637
     28 H12        -0.5800    4.7000   -0.9830 hc        1 MOL      0.068637
     29 N3         -3.9330    3.9230   -1.4830 n         1 MOL     -0.071858
     30 C10        -4.8580    3.5040   -2.5290 c3        1 MOL      0.088202
     31 C11        -6.1470    2.7350   -2.0240 c         1 MOL      0.313994
     32 O6         -7.1830    2.6900   -2.7150 o         1 MOL     -0.548586
     33 C12        -4.0730    2.6380   -3.5840 c3        1 MOL     -0.214166
     34 C13        -3.3720    1.4240   -2.9500 c         1 MOL      0.782851
     35 O7         -2.2320    1.1660   -3.3060 o         1 MOL     -0.700883
     36 O8         -3.9480    0.6910   -2.0830 o         1 MOL     -0.700883
     37 H13        -3.8710    3.3740   -0.6350 hn        1 MOL     -0.035144
     38 H14        -5.2940    4.3350   -3.0900 h1        1 MOL      0.056287
     39 H15        -3.3790    3.3110   -4.0770 hc        1 MOL      0.048693
     40 H16        -4.7560    2.1990   -4.3140 hc        1 MOL      0.048693
     41 N4         -6.0960    2.2080   -0.8020 n         1 MOL     -0.010151
     42 C14        -7.1950    1.4200   -0.2710 c3        1 MOL     -0.188575
     43 C15        -7.3270    0.0080   -0.7400 c         1 MOL      0.549637
     44 O9         -8.3630   -0.5900   -0.4420 o         1 MOL     -0.618063
     45 H17        -5.3080    2.3600   -0.1990 hn        1 MOL      0.053836
     46 H18        -8.1660    1.9000   -0.4460 h1        1 MOL      0.098032
     47 H19        -7.0450    1.4120    0.8020 h1        1 MOL      0.098032
     48 N5         -6.3660   -0.6320   -1.4470 n         1 MOL     -0.306881
     49 C16        -6.4580   -1.9670   -2.0270 c3        1 MOL      0.165882
     50 C17        -6.5500   -3.0780   -0.9860 c         1 MOL      0.494990
     51 O10        -7.0060   -4.1640   -1.3400 o         1 MOL     -0.561862
     52 C18        -5.3730   -2.1390   -3.1070 c3        1 MOL     -0.333234
     53 C19        -4.0080   -2.1640   -2.5200 c         1 MOL      0.818291
     54 N6         -3.0390   -2.1450   -3.4010 n         1 MOL     -0.780331
     55 O11        -3.7310   -2.1430   -1.3550 o         1 MOL     -0.703940
     56 H20        -5.5860   -0.0670   -1.7390 hn        1 MOL      0.178238
     57 H21        -7.4340   -2.1330   -2.4750 h1        1 MOL      0.034417
     58 H22        -5.4250   -1.3100   -3.8180 hc        1 MOL      0.090531
     59 H23        -5.5310   -3.0810   -3.6160 hc        1 MOL      0.090531
     60 H24        -3.1900   -2.1310   -4.4040 hn        1 MOL      0.358206
     61 H25        -2.0990   -2.0450   -3.0410 hn        1 MOL      0.358206
     62 N7         -6.1100   -2.7070    0.2420 n         1 MOL     -0.169640
     63 C20        -6.1000   -3.5230    1.4620 c3        1 MOL     -0.322640
     64 C21        -4.8120   -4.2380    1.8070 c         1 MOL      0.520822
     65 O12        -4.7150   -4.9780    2.8180 o         1 MOL     -0.572194
     66 H26        -5.6510   -1.8100    0.2900 hn        1 MOL      0.194114
     67 H27        -6.9220   -4.2470    1.4390 h1        1 MOL      0.131420
     68 H28        -6.2950   -2.8650    2.3060 h1        1 MOL      0.131420
     69 N8         -3.7710   -4.0020    0.9600 n         1 MOL     -0.066484
     70 C22        -2.3990   -4.5690    1.1250 c3        1 MOL     -0.391141
     71 C23        -1.2420   -3.5560    1.1470 c         1 MOL      0.796037
     72 O13        -1.3260   -2.5230    0.4200 o         1 MOL     -0.622082
     73 C24        -2.0210   -5.6150    0.0630 c3        1 MOL      0.442263
     74 C25        -2.8090   -6.9140    0.0380 c3        1 MOL     -0.472858
     75 O14        -2.0770   -4.9790   -1.2380 oh        1 MOL     -0.576482
     76 H29        -3.8590   -3.3430    0.1960 hn        1 MOL      0.151082
     77 H30        -2.3550   -5.0850    2.0840 h1        1 MOL      0.120083
     78 H31        -0.9560   -5.8430    0.0860 h1        1 MOL     -0.001583
     79 H32        -1.7630   -4.0820   -1.2260 ho        1 MOL      0.327016
     80 H33        -2.4530   -7.5590   -0.7620 hc        1 MOL      0.127837
     81 H34        -2.7820   -7.4290    0.9970 hc        1 MOL      0.127837
     82 H35        -3.8560   -6.7510   -0.2070 hc        1 MOL      0.127837
     83 N9         -0.2190   -3.7690    2.0120 n         1 MOL     -0.667567
     84 C26         1.0700   -3.0080    1.8480 c3        1 MOL     -0.025884
     85 C27         1.7980   -3.1520    0.4280 c         1 MOL      0.657889
     86 O15         2.2950   -4.2560    0.0600 o         1 MOL     -0.601072
     87 C28         1.9970   -3.6220    2.9460 c3        1 MOL      0.074058
     88 C29         1.3380   -3.3660    4.3220 c3        1 MOL      0.278675
     89 C30         3.3450   -2.7950    2.8340 c3        1 MOL     -0.335984
     90 C31         2.2280   -3.5890    5.5270 c3        1 MOL     -0.218798
     91 H36        -0.2900   -4.5390    2.6610 hn        1 MOL      0.324872
     92 H37         0.8370   -1.9680    2.1040 h1        1 MOL      0.074441
     93 H38         2.1520   -4.6920    2.7900 hc        1 MOL      0.025110
     94 H39         0.5320   -4.0820    4.4260 hc        1 MOL     -0.068954
     95 H40         0.8420   -2.4030    4.2550 hc        1 MOL     -0.068954
     96 H41         3.8870   -2.9130    1.8930 hc        1 MOL      0.066837
     97 H42         3.2520   -1.7360    3.0910 hc        1 MOL      0.066837
     98 H43         4.1040   -3.0070    3.5890 hc        1 MOL      0.066837
     99 H44         1.7240   -3.3870    6.4700 hc        1 MOL      0.039556
    100 H45         2.5490   -4.6370    5.5060 hc        1 MOL      0.039556
    101 H46         3.0830   -2.9190    5.4980 hc        1 MOL      0.039556
    102 N10         1.7560   -2.0650   -0.2800 n         1 MOL     -0.424006
    103 C32         2.5920   -1.8950   -1.4940 c3        1 MOL      0.001980
    104 C33         4.0390   -1.2740   -1.0930 c         1 MOL      0.434446
    105 O16         4.2710   -0.9480    0.0640 o         1 MOL     -0.328417
    106 C34         1.8340   -0.9390   -2.5140 c3        1 MOL     -0.242901
    107 C35         0.4230   -1.3780   -2.8570 c         1 MOL      0.778535
    108 O17        -0.5150   -1.0970   -2.0590 o         1 MOL     -0.667548
    109 O18         0.3030   -1.8870   -3.9350 o         1 MOL     -0.667548
    110 H47         1.2070   -1.2750    0.0110 hn        1 MOL      0.339392
    111 H48         2.6420   -2.8480   -2.0140 h1        1 MOL      0.090419
    112 H49         2.4630   -0.8900   -3.4030 hc        1 MOL      0.061911
    113 H50         1.9020    0.0480   -2.0590 hc        1 MOL      0.061911
    114 N11         5.0570   -1.3310   -1.9830 n         1 MOL     -0.634015
    115 C36         6.4820   -0.9930   -1.6760 c3        1 MOL      0.470930
    116 C37         6.6110    0.4730   -1.2540 c         1 MOL      0.119327
    117 O19         7.3820    0.7610   -0.3000 o         1 MOL     -0.439466
    118 C38         7.4050   -1.4780   -2.8130 c3        1 MOL     -0.282605
    119 C39         8.8450   -1.5610   -2.3700 ca        1 MOL      0.027733
    120 C40         9.3030   -2.5830   -1.5320 ca        1 MOL     -0.113455
    121 C41         9.8460   -0.5480   -2.7260 ca        1 MOL     -0.113455
    122 C42        10.5630   -2.6440   -0.9940 ca        1 MOL     -0.150366
    123 C43        11.1460   -0.6180   -2.1720 ca        1 MOL     -0.150366
    124 C44        11.4590   -1.6300   -1.2310 ca        1 MOL     -0.058692
    125 H51         4.8800   -1.8700   -2.8190 hn        1 MOL      0.303262
    126 H52         6.6480   -1.6790   -0.8450 h1        1 MOL      0.041171
    127 H53         7.2970   -0.8040   -3.6710 hc        1 MOL      0.098551
    128 H54         7.0280   -2.4600   -3.0960 hc        1 MOL      0.098551
    129 H55         8.5350   -3.2540   -1.1690 ha        1 MOL      0.110327
    130 H56         9.6760    0.1740   -3.5170 ha        1 MOL      0.110327
    131 H57        10.7260   -3.4500   -0.2890 ha        1 MOL      0.117120
    132 H58        11.9530    0.0490   -2.4500 ha        1 MOL      0.117120
    133 H59        12.4550   -1.5500   -0.8190 ha        1 MOL      0.091157
    134 N12         5.8730    1.5380   -1.8210 n         1 MOL      0.056489
    135 C45         6.0080    2.9110   -1.2570 c3        1 MOL     -0.029774
    136 C46         5.3980    3.0920    0.1250 c         1 MOL      0.264203
    137 O20         5.7700    4.0870    0.7540 o         1 MOL     -0.502110
    138 C47         5.3680    3.8000   -2.2790 c3        1 MOL      0.173522
    139 C48         5.1310    3.0340   -3.5320 c3        1 MOL     -0.359711
    140 C49         5.1880    1.5170   -3.1050 c3        1 MOL      0.122528
    141 H60         7.0730    3.1290   -1.1810 h1        1 MOL      0.054965
    142 H61         4.4380    4.0160   -1.7540 hc        1 MOL     -0.007230
    143 H62         5.9070    4.7310   -2.4650 hc        1 MOL     -0.007230
    144 H63         4.0910    3.1970   -3.8270 hc        1 MOL      0.108039
    145 H64         5.9280    3.3040   -4.2210 hc        1 MOL      0.108039
    146 H65         4.1870    1.0870   -3.0730 h1        1 MOL     -0.007285
    147 H66         5.7920    0.9120   -3.7770 h1        1 MOL     -0.007285
    148 N13         4.4500    2.2690    0.4900 n         1 MOL      0.021641
    149 C50         3.9470    2.0970    1.8140 c3        1 MOL     -0.181786
    150 C51         4.8520    1.3320    2.8380 c         1 MOL      0.472203
    151 O21         4.8720    1.7020    4.0310 o         1 MOL     -0.579795
    152 C52         2.5250    1.4920    1.7180 c3        1 MOL      0.126680
    153 C53         1.6360    2.2060    0.6700 c3        1 MOL     -0.066877
    154 C54         0.3320    1.4310    0.3320 c         1 MOL      0.518098
    155 O22        -0.6120    1.9600   -0.3490 o         1 MOL     -0.667803
    156 O23         0.2530    0.2670    0.7390 o         1 MOL     -0.667803
    157 H67         4.1410    1.5410   -0.1430 hn        1 MOL      0.142505
    158 H68         3.8750    3.1270    2.1440 h1        1 MOL      0.096935
    159 H69         2.0460    1.6060    2.6960 hc        1 MOL     -0.020001
    160 H70         2.6520    0.4340    1.4900 hc        1 MOL     -0.020001
    161 H71         2.1050    2.4210   -0.2890 hc        1 MOL      0.031407
    162 H72         1.3400    3.1810    1.0790 hc        1 MOL      0.031407
    163 N14         5.6350    0.3810    2.3770 n         1 MOL      0.007850
    164 C55         6.7170   -0.2550    3.1380 c3        1 MOL     -0.167741
    165 H73         6.8800    0.2940    4.0660 h1        1 MOL      0.069939
    166 H74         6.4440   -1.2850    3.3690 h1        1 MOL      0.069939
    167 H75         7.6330   -0.2460    2.5470 h1        1 MOL      0.069939
    168 H76         5.4580    0.1880    1.3960 hn        1 MOL      0.017163
    169 Ca1        -2.1620   -0.1230   -0.2790 Ca        1 MOL      1.715102
    170 O24        -1.3320   -0.3130    2.5880 oh        1 MOL     -0.872161
    171 H77        -0.5700   -0.1140    2.0460 ho        1 MOL      0.431828
    172 H78        -1.1490    0.1230    3.4250 ho        1 MOL      0.431828
    173 O25        -3.9410   -1.1010    1.7380 oh        1 MOL     -0.872161
    174 H79        -3.2260   -1.0550    2.3680 ho        1 MOL      0.431828
    175 H80        -4.7260   -0.8880    2.2440 ho        1 MOL      0.431828
@<TRIPOS>BOND
     1    1    2 1   
     2    1    4 1   
     3    1    5 1   
     4    1    6 1   
     5    2    3 2   
     6    2    7 1   
     7    7    8 1   
     8    7   15 1   
     9    8    9 1   
    10    8   11 1   
    11    8   16 1   
    12    9   10 2   
    13    9   19 1   
    14   11   12 1   
    15   11   17 1   
    16   11   18 1   
    17   12   13 1   
    18   12   14 1   
    19   19   20 1   
    20   19   24 1   
    21   20   21 1   
    22   20   23 1   
    23   20   25 1   
    24   21   22 2   
    25   21   29 1   
    26   23   26 1   
    27   23   27 1   
    28   23   28 1   
    29   29   30 1   
    30   29   37 1   
    31   30   31 1   
    32   30   33 1   
    33   30   38 1   
    34   31   32 2   
    35   31   41 1   
    36   33   34 1   
    37   33   39 1   
    38   33   40 1   
    39   34   35 1   
    40   34   36 1   
    41   41   42 1   
    42   41   45 1   
    43   42   43 1   
    44   42   46 1   
    45   42   47 1   
    46   43   44 2   
    47   43   48 1   
    48   48   49 1   
    49   48   56 1   
    50   49   50 1   
    51   49   52 1   
    52   49   57 1   
    53   50   51 2   
    54   50   62 1   
    55   52   53 1   
    56   52   58 1   
    57   52   59 1   
    58   53   54 1   
    59   53   55 2   
    60   54   60 1   
    61   54   61 1   
    62   62   63 1   
    63   62   66 1   
    64   63   64 1   
    65   63   67 1   
    66   63   68 1   
    67   64   65 2   
    68   64   69 1   
    69   69   70 1   
    70   69   76 1   
    71   70   71 1   
    72   70   73 1   
    73   70   77 1   
    74   71   72 2   
    75   71   83 1   
    76   73   74 1   
    77   73   75 1   
    78   73   78 1   
    79   74   80 1   
    80   74   81 1   
    81   74   82 1   
    82   75   79 1   
    83   83   84 1   
    84   83   91 1   
    85   84   85 1   
    86   84   87 1   
    87   84   92 1   
    88   85   86 2   
    89   85  102 1   
    90   87   88 1   
    91   87   89 1   
    92   87   93 1   
    93   88   90 1   
    94   88   94 1   
    95   88   95 1   
    96   89   96 1   
    97   89   97 1   
    98   89   98 1   
    99   90   99 1   
   100   90  100 1   
   101   90  101 1   
   102  102  103 1   
   103  102  110 1   
   104  103  104 1   
   105  103  106 1   
   106  103  111 1   
   107  104  105 2   
   108  104  114 1   
   109  106  107 1   
   110  106  112 1   
   111  106  113 1   
   112  107  108 1   
   113  107  109 1   
   114  114  115 1   
   115  114  125 1   
   116  115  116 1   
   117  115  118 1   
   118  115  126 1   
   119  116  117 2   
   120  116  134 1   
   121  118  119 1   
   122  118  127 1   
   123  118  128 1   
   124  119  120 ar  
   125  119  121 ar  
   126  120  122 ar  
   127  120  129 1   
   128  121  123 ar  
   129  121  130 1   
   130  122  124 ar  
   131  122  131 1   
   132  123  124 ar  
   133  123  132 1   
   134  124  133 1   
   135  134  135 1   
   136  134  140 1   
   137  135  136 1   
   138  135  138 1   
   139  135  141 1   
   140  136  137 2   
   141  136  148 1   
   142  138  139 1   
   143  138  142 1   
   144  138  143 1   
   145  139  140 1   
   146  139  144 1   
   147  139  145 1   
   148  140  146 1   
   149  140  147 1   
   150  148  149 1   
   151  148  157 1   
   152  149  150 1   
   153  149  152 1   
   154  149  158 1   
   155  150  151 2   
   156  150  163 1   
   157  152  153 1   
   158  152  159 1   
   159  152  160 1   
   160  153  154 1   
   161  153  161 1   
   162  153  162 1   
   163  154  155 1   
   164  154  156 1   
   165  163  164 1   
   166  163  168 1   
   167  164  165 1   
   168  164  166 1   
   169  164  167 1   
   170  170  171 1   
   171  170  172 1   
   172  173  174 1   
   173  173  175 1   
@<TRIPOS>SUBSTRUCTURE
     1 MOL         1 TEMP              0 ****  ****    0 ROOT
