@<TRIPOS>MOLECULE
MOL
  179   176     1     0     0
SMALL
resp


@<TRIPOS>ATOM
      1 C1          1.1610   -4.9380    6.0960 c3        1 MOL     -0.389232
      2 C2          1.0430   -4.2910    4.6950 c         1 MOL      0.740946
      3 O1          0.1640   -4.6730    3.9590 o         1 MOL     -0.606331
      4 H1          0.2300   -5.4490    6.3400 hc        1 MOL      0.102101
      5 H2          1.9810   -5.6560    6.0970 hc        1 MOL      0.102101
      6 H3          1.3550   -4.1640    6.8390 hc        1 MOL      0.102101
      7 N1          1.8790   -3.3710    4.2900 n         1 MOL     -0.638715
      8 C3          2.0730   -2.9790    2.8810 c3        1 MOL      0.331037
      9 C4          2.5810   -4.1350    2.0050 c         1 MOL      0.441644
     10 O2          3.8090   -4.3110    1.9180 o         1 MOL     -0.463579
     11 C5          2.9270   -1.6420    2.6960 c3        1 MOL     -0.432670
     12 C6          2.7300   -0.9980    1.3160 c         1 MOL      1.041756
     13 O3          1.7690   -1.3570    0.6160 o         1 MOL     -0.848012
     14 O4          3.5200   -0.1390    0.8350 o         1 MOL     -0.848012
     15 H4          2.6080   -3.0220    4.9080 hn        1 MOL      0.318086
     16 H5          1.0940   -2.7380    2.4730 h1        1 MOL      0.026327
     17 H6          3.9960   -1.7630    2.8120 hc        1 MOL      0.098523
     18 H7          2.4640   -0.8920    3.3390 hc        1 MOL      0.098523
     19 N2          1.5990   -4.7870    1.3190 n         1 MOL     -0.509310
     20 C7          1.9430   -6.0710    0.5900 c3        1 MOL      0.297541
     21 C8          3.0060   -5.8250   -0.4940 c         1 MOL      0.335479
     22 O5          3.8000   -6.7530   -0.6530 o         1 MOL     -0.544826
     23 C9          0.6800   -6.7160   -0.0130 c3        1 MOL     -0.422640
     24 C10         0.1370   -5.8880   -1.2400 c3        1 MOL     -0.006277
     25 C11        -0.6890   -6.7730   -2.2360 c3        1 MOL      0.058304
     26 C12        -1.8240   -7.6130   -1.6670 c3        1 MOL      0.048081
     27 N3         -2.8350   -7.8420   -2.7540 n4        1 MOL     -0.321298
     28 H8          0.6590   -4.5430    1.5900 hn        1 MOL      0.321354
     29 H9          2.4470   -6.7040    1.3260 h1        1 MOL      0.068792
     30 H10         0.0030   -6.7870    0.8390 hc        1 MOL      0.117526
     31 H11         0.9580   -7.7250   -0.3210 hc        1 MOL      0.117526
     32 H12         0.9310   -5.3290   -1.7510 hc        1 MOL      0.060872
     33 H13        -0.5770   -5.1640   -0.8570 hc        1 MOL      0.060872
     34 H14        -0.1060   -7.3850   -2.9210 hc        1 MOL      0.001494
     35 H15        -1.2030   -5.9950   -2.7970 hc        1 MOL      0.001494
     36 H16        -2.2300   -7.0350   -0.8300 hx        1 MOL      0.088625
     37 H17        -1.5660   -8.6300   -1.3810 hx        1 MOL      0.088625
     38 H18        -3.1350   -7.0240   -3.2540 hn        1 MOL      0.313049
     39 H19        -2.6790   -8.6010   -3.4040 hn        1 MOL      0.313049
     40 H20        -3.7660   -8.0360   -2.3900 hn        1 MOL      0.313049
     41 N4          3.2460   -4.5900   -1.0080 n         1 MOL     -0.005376
     42 C13         4.2340   -4.2370   -1.9610 c3        1 MOL      0.050118
     43 C14         5.4010   -3.3360   -1.3410 c         1 MOL      0.293927
     44 O6          6.2760   -2.8940   -2.0620 o         1 MOL     -0.517398
     45 C15         3.5750   -3.5480   -3.1380 c3        1 MOL     -0.302466
     46 C16         2.7670   -2.2940   -2.8220 c         1 MOL      0.842450
     47 O7          1.5610   -2.1480   -3.0970 o         1 MOL     -0.781151
     48 O8          3.2090   -1.3550   -2.0980 o         1 MOL     -0.781151
     49 H21         2.6460   -3.8520   -0.6910 hn        1 MOL      0.132694
     50 H22         4.7290   -5.1000   -2.4040 h1        1 MOL      0.097599
     51 H23         2.9440   -4.2170   -3.7180 hc        1 MOL      0.069643
     52 H24         4.3560   -3.2220   -3.8150 hc        1 MOL      0.069643
     53 N5          5.3410   -2.9700   -0.0520 n         1 MOL      0.080971
     54 C17         6.3150   -2.2610    0.7310 c3        1 MOL     -0.068480
     55 C18         6.7810   -0.9230    0.0190 c         1 MOL      0.430653
     56 O9          7.9410   -0.4980    0.3310 o         1 MOL     -0.549234
     57 H25         4.5260   -3.3650    0.4020 hn        1 MOL     -0.086806
     58 H26         7.1650   -2.9360    0.8320 h1        1 MOL      0.068796
     59 H27         5.8870   -2.0670    1.7130 h1        1 MOL      0.068796
     60 N6          5.9660   -0.2870   -0.8730 n         1 MOL     -0.154388
     61 C19         6.3520    0.9990   -1.3520 c3        1 MOL     -0.105126
     62 C20         6.2900    2.1720   -0.3170 c         1 MOL      0.376605
     63 O10         6.6700    3.3010   -0.5440 o         1 MOL     -0.499813
     64 C21         5.5370    1.3380   -2.6740 c3        1 MOL     -0.201751
     65 C22         4.2430    2.1260   -2.4600 c         1 MOL      0.534658
     66 N7          4.1590    3.3650   -2.9290 n         1 MOL     -0.522449
     67 O11         3.3340    1.7100   -1.7640 o         1 MOL     -0.657297
     68 H28         5.0480   -0.6400   -1.1000 hn        1 MOL      0.252255
     69 H29         7.3950    1.0370   -1.6620 h1        1 MOL      0.134488
     70 H30         5.3060    0.4380   -3.2390 hc        1 MOL      0.093015
     71 H31         6.1910    1.9620   -3.2930 hc        1 MOL      0.093015
     72 H32         4.7990    3.6360   -3.6540 hn        1 MOL      0.293702
     73 H33         3.2620    3.7950   -2.7380 hn        1 MOL      0.293702
     74 N8          5.7840    1.8550    0.8470 n         1 MOL     -0.033514
     75 C23         5.6700    2.8550    1.9240 c3        1 MOL     -0.405172
     76 C24         4.3690    3.6430    1.9660 c         1 MOL      0.714895
     77 O12         4.3010    4.6110    2.6840 o         1 MOL     -0.552133
     78 H34         5.3070    0.9730    0.8390 hn        1 MOL      0.142762
     79 H35         6.4950    3.5620    1.8760 h1        1 MOL      0.147975
     80 H36         5.7250    2.3530    2.8910 h1        1 MOL      0.147975
     81 N9          3.3410    3.0900    1.2250 n         1 MOL     -0.473826
     82 C25         1.9880    3.6090    1.3740 c3        1 MOL      0.115603
     83 C26         0.7930    2.5870    1.4330 c         1 MOL      0.416722
     84 O13         0.9600    1.4710    0.9170 o         1 MOL     -0.579505
     85 C27         1.7060    4.5750    0.1890 c3        1 MOL      0.029721
     86 C28         2.4290    5.9090   -0.0300 ca        1 MOL      0.130608
     87 C29         3.6470    5.8960   -0.6680 ca        1 MOL     -0.205024
     88 C30         1.6760    7.0290    0.2460 ca        1 MOL     -0.205024
     89 C31         4.1910    7.1530   -0.9110 ca        1 MOL     -0.240156
     90 C32         2.1840    8.2940   -0.1340 ca        1 MOL     -0.240156
     91 C33         3.4560    8.3400   -0.6770 ca        1 MOL      0.315535
     92 O14         3.9880    9.4810   -1.0170 oh        1 MOL     -0.447902
     93 H37         3.5880    2.3100    0.6330 hn        1 MOL      0.373760
     94 H38         1.9150    4.1890    2.3040 h1        1 MOL      0.014435
     95 H39         0.6350    4.7270    0.0340 hc        1 MOL     -0.044020
     96 H40         2.0000    3.9740   -0.6710 hc        1 MOL     -0.044020
     97 H41         4.1720    4.9690   -0.8690 ha        1 MOL      0.134035
     98 H42         0.6950    6.9920    0.6820 ha        1 MOL      0.134035
     99 H43         5.1660    7.2020   -1.3760 ha        1 MOL      0.140799
    100 H44         1.5580    9.1570    0.0350 ha        1 MOL      0.140799
    101 H45         3.3350   10.1830   -0.9230 ho        1 MOL      0.340797
    102 N10        -0.3880    3.0110    1.9240 n         1 MOL     -0.315906
    103 C34        -1.7150    2.3330    1.7440 c3        1 MOL     -0.154383
    104 C35        -2.8410    3.1750    1.1030 c         1 MOL      0.531771
    105 O15        -3.1080    4.2920    1.5400 o         1 MOL     -0.521470
    106 C36        -2.2810    1.6710    3.0080 c3        1 MOL      0.153600
    107 C37        -2.2700    2.6500    4.2160 c3        1 MOL     -0.060738
    108 C38        -1.4960    0.4080    3.2550 c3        1 MOL     -0.529574
    109 C39        -3.3050    2.3340    5.3130 c3        1 MOL     -0.075376
    110 H46        -0.3730    3.8420    2.4810 hn        1 MOL      0.267916
    111 H47        -1.5800    1.4920    1.0700 h1        1 MOL      0.208305
    112 H48        -3.2620    1.2680    2.7340 hc        1 MOL      0.003413
    113 H49        -2.4160    3.6720    3.8750 hc        1 MOL      0.038803
    114 H50        -1.2690    2.5700    4.6590 hc        1 MOL      0.038803
    115 H51        -1.7410   -0.1930    2.3860 hc        1 MOL      0.147630
    116 H52        -0.4390    0.6630    3.3150 hc        1 MOL      0.147630
    117 H53        -1.8080   -0.0990    4.1640 hc        1 MOL      0.147630
    118 H54        -4.3260    2.4310    4.9360 hc        1 MOL      0.021272
    119 H55        -3.2870    1.3700    5.8120 hc        1 MOL      0.021272
    120 H56        -3.1980    2.9950    6.1590 hc        1 MOL      0.021272
    121 N11        -3.4580    2.7130   -0.0320 n         1 MOL     -0.346390
    122 C40        -4.6680    3.3210   -0.4950 c3        1 MOL     -0.005946
    123 C41        -5.9340    2.6160    0.0580 c         1 MOL      0.419426
    124 O16        -5.8120    1.5250    0.6390 o         1 MOL     -0.435417
    125 C42        -4.6560    3.1840   -2.0500 c3        1 MOL      0.214447
    126 O17        -4.6400    1.8270   -2.4710 oh        1 MOL     -0.680310
    127 H57        -3.3390    1.7450   -0.3030 hn        1 MOL      0.243159
    128 H58        -4.7020    4.3880   -0.2680 h1        1 MOL      0.061789
    129 H59        -3.7670    3.7460   -2.3390 h1        1 MOL      0.015141
    130 H60        -5.3700    3.8440   -2.5560 h1        1 MOL      0.015141
    131 H61        -3.7680    1.4500   -2.3080 ho        1 MOL      0.490975
    132 N12        -7.1570    3.0710   -0.2790 n         1 MOL     -0.342523
    133 C43        -8.4190    2.5970    0.2160 c3        1 MOL      0.118378
    134 C44        -8.6920    1.1430   -0.3280 c         1 MOL      0.321566
    135 O18        -9.1250    0.2320    0.4150 o         1 MOL     -0.498709
    136 C45        -9.4920    3.5850   -0.2540 c3        1 MOL     -0.153273
    137 H62        -7.1790    3.9720   -0.7400 hn        1 MOL      0.214421
    138 H63        -8.4490    2.6030    1.3160 h1        1 MOL      0.087289
    139 H64       -10.2330    3.6550    0.5340 hc        1 MOL      0.055415
    140 H65        -9.1740    4.6320   -0.2270 hc        1 MOL      0.055415
    141 H66        -9.9190    3.3750   -1.2380 hc        1 MOL      0.055415
    142 N13        -8.2440    0.8740   -1.5440 n         1 MOL     -0.140896
    143 C46        -8.1930   -0.3660   -2.2360 c3        1 MOL     -0.001086
    144 C47        -7.3270   -1.4220   -1.5710 c         1 MOL      0.411953
    145 O19        -7.6150   -2.6400   -1.6980 o         1 MOL     -0.541224
    146 C48        -7.8230   -0.0170   -3.7210 c3        1 MOL     -0.367835
    147 H67        -7.9560    1.6340   -2.1500 hn        1 MOL      0.205977
    148 H68        -9.2010   -0.7860   -2.2070 h1        1 MOL      0.093904
    149 H69        -8.6220    0.5310   -4.2170 hc        1 MOL      0.113842
    150 H70        -6.8960    0.5580   -3.7620 hc        1 MOL      0.113842
    151 H71        -7.6070   -0.9450   -4.2540 hc        1 MOL      0.113842
    152 N14        -6.2100   -1.0680   -0.9030 n         1 MOL      0.094495
    153 C49        -5.2600   -2.0350   -0.2720 c3        1 MOL     -0.365740
    154 C50        -5.6820   -2.3940    1.1680 c         1 MOL      0.539248
    155 O20        -5.7470   -3.6010    1.4960 o         1 MOL     -0.530810
    156 C51        -3.8370   -1.5570   -0.2550 c3        1 MOL      0.286973
    157 C52        -3.1140   -1.5270   -1.5870 c3        1 MOL     -0.250798
    158 C53        -2.1050   -0.4360   -1.5730 c         1 MOL      0.889674
    159 O21        -2.4200    0.7340   -1.8710 o         1 MOL     -0.816368
    160 O22        -0.9610   -0.7440   -1.1860 o         1 MOL     -0.816368
    161 H72        -6.0000   -0.0820   -0.7960 hn        1 MOL     -0.044085
    162 H73        -5.2780   -2.9480   -0.8710 h1        1 MOL      0.131475
    163 H74        -3.2770   -2.1520    0.4740 hc        1 MOL     -0.022093
    164 H75        -3.7520   -0.5680    0.1860 hc        1 MOL     -0.022093
    165 H76        -3.8490   -1.1920   -2.3220 hc        1 MOL      0.043882
    166 H77        -2.7110   -2.4880   -1.8740 hc        1 MOL      0.043882
    167 N15        -6.0400   -1.3140    1.9530 n         1 MOL     -0.263319
    168 C54        -6.3890   -1.3940    3.3990 c3        1 MOL     -0.217400
    169 H78        -7.4730   -1.4350    3.5090 h1        1 MOL      0.102859
    170 H79        -5.9470   -2.2920    3.8300 h1        1 MOL      0.102859
    171 H80        -6.0040   -0.5160    3.9160 h1        1 MOL      0.102859
    172 H81        -6.1320   -0.3950    1.5330 hn        1 MOL      0.237334
    173 Ca1         1.3350    0.0800   -1.4360 Ca        1 MOL      1.830748
    174 O23        -0.4640    2.3300   -1.6650 oh        1 MOL     -0.792918
    175 H82        -1.2300    1.8250   -1.9410 ho        1 MOL      0.384300
    176 H83        -0.7260    3.2520   -1.7660 ho        1 MOL      0.384300
    177 O24         1.3420    1.3620   -3.9250 oh        1 MOL     -0.792918
    178 H84         1.9420    1.3590   -4.6690 ho        1 MOL      0.384300
    179 H85         1.1540    2.2890   -3.7730 ho        1 MOL      0.384300
@<TRIPOS>BOND
     1    1    2 1   
     2    1    4 1   
     3    1    5 1   
     4    1    6 1   
     5    2    3 2   
     6    2    7 1   
     7    7    8 1   
     8    7   15 1   
     9    8    9 1   
    10    8   11 1   
    11    8   16 1   
    12    9   10 2   
    13    9   19 1   
    14   11   12 1   
    15   11   17 1   
    16   11   18 1   
    17   12   13 1   
    18   12   14 1   
    19   19   20 1   
    20   19   28 1   
    21   20   21 1   
    22   20   23 1   
    23   20   29 1   
    24   21   22 2   
    25   21   41 1   
    26   23   24 1   
    27   23   30 1   
    28   23   31 1   
    29   24   25 1   
    30   24   32 1   
    31   24   33 1   
    32   25   26 1   
    33   25   34 1   
    34   25   35 1   
    35   26   27 1   
    36   26   36 1   
    37   26   37 1   
    38   27   38 1   
    39   27   39 1   
    40   27   40 1   
    41   41   42 1   
    42   41   49 1   
    43   42   43 1   
    44   42   45 1   
    45   42   50 1   
    46   43   44 2   
    47   43   53 1   
    48   45   46 1   
    49   45   51 1   
    50   45   52 1   
    51   46   47 1   
    52   46   48 1   
    53   53   54 1   
    54   53   57 1   
    55   54   55 1   
    56   54   58 1   
    57   54   59 1   
    58   55   56 2   
    59   55   60 1   
    60   60   61 1   
    61   60   68 1   
    62   61   62 1   
    63   61   64 1   
    64   61   69 1   
    65   62   63 2   
    66   62   74 1   
    67   64   65 1   
    68   64   70 1   
    69   64   71 1   
    70   65   66 1   
    71   65   67 2   
    72   66   72 1   
    73   66   73 1   
    74   74   75 1   
    75   74   78 1   
    76   75   76 1   
    77   75   79 1   
    78   75   80 1   
    79   76   77 2   
    80   76   81 1   
    81   81   82 1   
    82   81   93 1   
    83   82   83 1   
    84   82   85 1   
    85   82   94 1   
    86   83   84 2   
    87   83  102 1   
    88   85   86 1   
    89   85   95 1   
    90   85   96 1   
    91   86   87 ar  
    92   86   88 ar  
    93   87   89 ar  
    94   87   97 1   
    95   88   90 ar  
    96   88   98 1   
    97   89   91 ar  
    98   89   99 1   
    99   90   91 ar  
   100   90  100 1   
   101   91   92 1   
   102   92  101 1   
   103  102  103 1   
   104  102  110 1   
   105  103  104 1   
   106  103  106 1   
   107  103  111 1   
   108  104  105 2   
   109  104  121 1   
   110  106  107 1   
   111  106  108 1   
   112  106  112 1   
   113  107  109 1   
   114  107  113 1   
   115  107  114 1   
   116  108  115 1   
   117  108  116 1   
   118  108  117 1   
   119  109  118 1   
   120  109  119 1   
   121  109  120 1   
   122  121  122 1   
   123  121  127 1   
   124  122  123 1   
   125  122  125 1   
   126  122  128 1   
   127  123  124 2   
   128  123  132 1   
   129  125  126 1   
   130  125  129 1   
   131  125  130 1   
   132  126  131 1   
   133  132  133 1   
   134  132  137 1   
   135  133  134 1   
   136  133  136 1   
   137  133  138 1   
   138  134  135 2   
   139  134  142 1   
   140  136  139 1   
   141  136  140 1   
   142  136  141 1   
   143  142  143 1   
   144  142  147 1   
   145  143  144 1   
   146  143  146 1   
   147  143  148 1   
   148  144  145 2   
   149  144  152 1   
   150  146  149 1   
   151  146  150 1   
   152  146  151 1   
   153  152  153 1   
   154  152  161 1   
   155  153  154 1   
   156  153  156 1   
   157  153  162 1   
   158  154  155 2   
   159  154  167 1   
   160  156  157 1   
   161  156  163 1   
   162  156  164 1   
   163  157  158 1   
   164  157  165 1   
   165  157  166 1   
   166  158  159 1   
   167  158  160 1   
   168  167  168 1   
   169  167  172 1   
   170  168  169 1   
   171  168  170 1   
   172  168  171 1   
   173  174  175 1   
   174  174  176 1   
   175  177  178 1   
   176  177  179 1   
@<TRIPOS>SUBSTRUCTURE
     1 MOL         1 TEMP              0 ****  ****    0 ROOT
