@<TRIPOS>MOLECULE
MOL
  189   185     1     0     0
SMALL
resp


@<TRIPOS>ATOM
      1 C1         -0.5330    3.0350    5.7000 c3        1 MOL     -0.393777
      2 C2         -0.7340    2.3540    4.3600 c         1 MOL      0.742346
      3 O1          0.0030    2.7020    3.4630 o         1 MOL     -0.631923
      4 H1         -1.3480    3.7370    5.8750 hc        1 MOL      0.096916
      5 H2         -0.5240    2.2850    6.4900 hc        1 MOL      0.096916
      6 H3          0.4150    3.5720    5.6960 hc        1 MOL      0.096916
      7 N1         -1.7240    1.4940    4.1920 n         1 MOL     -0.528544
      8 C3         -2.2500    1.1250    2.8740 c3        1 MOL      0.051756
      9 C4         -2.8350    2.3160    2.1560 c         1 MOL      0.457516
     10 O2         -4.0590    2.4320    2.1520 o         1 MOL     -0.488230
     11 C5         -3.2640   -0.0880    2.9710 c3        1 MOL      0.094208
     12 C6         -3.8100   -0.6080    1.6890 c         1 MOL      0.546291
     13 O3         -3.3350   -0.2080    0.6020 o         1 MOL     -0.656193
     14 O4         -4.7690   -1.4290    1.7300 o         1 MOL     -0.656193
     15 H4         -2.3810    1.3680    4.9440 hn        1 MOL      0.294887
     16 H5         -1.3340    0.8640    2.3540 h1        1 MOL     -0.046199
     17 H6         -4.0850    0.1510    3.6540 hc        1 MOL      0.003649
     18 H7         -2.8230   -0.8930    3.5690 hc        1 MOL      0.003649
     19 N2         -2.0260    3.1750    1.5340 n         1 MOL     -0.252181
     20 C7         -2.4380    4.5490    1.2140 c3        1 MOL     -0.010421
     21 C8         -3.4080    4.5900    0.0510 c         1 MOL      0.493137
     22 O5         -4.3000    5.4170    0.1180 o         1 MOL     -0.580178
     23 C9         -1.1200    5.3430    0.9710 c3        1 MOL     -0.114762
     24 C10        -1.3820    6.6590    0.2870 c3        1 MOL     -0.089157
     25 C11        -2.2270    7.7880    0.9220 c3        1 MOL      0.107662
     26 C12        -2.6510    8.9710   -0.0010 c3        1 MOL     -0.038860
     27 N3         -3.7930    9.6610    0.6800 n4        1 MOL     -0.241806
     28 H8         -1.1490    2.8380    1.1770 hn        1 MOL      0.242963
     29 H9         -2.9930    5.0030    2.0360 h1        1 MOL      0.092445
     30 H10        -0.5090    4.7010    0.3350 hc        1 MOL      0.081639
     31 H11        -0.5690    5.5400    1.8880 hc        1 MOL      0.081639
     32 H12        -1.8100    6.4860   -0.7040 hc        1 MOL      0.029726
     33 H13        -0.4470    7.0710   -0.0660 hc        1 MOL      0.029726
     34 H14        -1.6560    8.2540    1.7380 hc        1 MOL     -0.013534
     35 H15        -3.0420    7.3040    1.4540 hc        1 MOL     -0.013534
     36 H16        -2.9680    8.4800   -0.9260 hx        1 MOL      0.097026
     37 H17        -1.7900    9.5970   -0.2290 hx        1 MOL      0.097026
     38 H18        -4.4020   10.2160    0.0930 hn        1 MOL      0.301399
     39 H19        -4.3060    8.9630    1.1970 hn        1 MOL      0.301399
     40 H20        -3.4880   10.3120    1.3820 hn        1 MOL      0.301399
     41 N4         -3.3630    3.6060   -0.8310 n         1 MOL     -0.301819
     42 C13        -4.3400    3.5910   -1.9760 c3        1 MOL      0.007342
     43 C14        -5.5400    2.7220   -1.7370 c         1 MOL      0.462431
     44 O6         -6.6640    2.9800   -2.2570 o         1 MOL     -0.563419
     45 C15        -3.7140    3.1260   -3.2450 c3        1 MOL     -0.175107
     46 C16        -2.7240    1.8860   -3.2260 c         1 MOL      0.822920
     47 O7         -2.5680    1.2260   -2.1980 o         1 MOL     -0.734393
     48 O8         -2.0980    1.5820   -4.2030 o         1 MOL     -0.734393
     49 H21        -2.7350    2.8310   -0.6510 hn        1 MOL      0.171834
     50 H22        -4.6680    4.6200   -2.1070 h1        1 MOL      0.080032
     51 H23        -3.0660    3.8920   -3.6820 hc        1 MOL      0.036746
     52 H24        -4.5270    2.9730   -3.9510 hc        1 MOL      0.036746
     53 N5         -5.4590    1.9420   -0.6690 n         1 MOL      0.031360
     54 C17        -6.4390    0.9990   -0.1890 c3        1 MOL     -0.191267
     55 C18        -6.6450   -0.1800   -1.1060 c         1 MOL      0.693123
     56 O9         -7.3630   -0.0130   -2.1040 o         1 MOL     -0.557531
     57 H25        -4.5550    1.8880   -0.2350 hn        1 MOL     -0.004972
     58 H26        -7.4620    1.3670   -0.1390 h1        1 MOL      0.069382
     59 H27        -6.1660    0.6910    0.8250 h1        1 MOL      0.069382
     60 N6         -6.0070   -1.2950   -0.7840 n         1 MOL     -0.606291
     61 C19        -6.3070   -2.5910   -1.4790 c3        1 MOL      0.050378
     62 C20        -6.2210   -3.8990   -0.6090 c         1 MOL      0.363768
     63 O10        -6.3050   -5.0040   -1.2070 o         1 MOL     -0.514953
     64 C21        -5.3270   -2.7280   -2.7180 c3        1 MOL     -0.161539
     65 C22        -3.8950   -2.4820   -2.3690 c         1 MOL      0.751906
     66 O11        -3.4090   -2.8060   -1.2760 o         1 MOL     -0.749431
     67 O12        -3.2010   -1.8800   -3.2000 o         1 MOL     -0.749431
     68 H28        -5.2880   -1.3010   -0.0710 hn        1 MOL      0.336072
     69 H29        -7.3210   -2.5810   -1.8920 h1        1 MOL      0.077608
     70 H30        -5.5350   -1.9760   -3.4880 hc        1 MOL      0.058584
     71 H31        -5.4670   -3.7110   -3.1730 hc        1 MOL      0.058584
     72 N7         -5.8440   -3.7540    0.6750 n         1 MOL     -0.167726
     73 C23        -5.6500   -4.8870    1.5690 c3        1 MOL     -0.232160
     74 C24        -4.2060   -5.3770    1.7680 c         1 MOL      0.565743
     75 O13        -3.9720   -6.5010    2.2500 o         1 MOL     -0.564149
     76 H32        -5.9880   -2.8360    1.0750 hn        1 MOL      0.250224
     77 H33        -6.1120   -5.7690    1.1390 h1        1 MOL      0.115906
     78 H34        -6.1260   -4.6460    2.5170 h1        1 MOL      0.115906
     79 N8         -3.1760   -4.6220    1.2520 n         1 MOL     -0.414528
     80 C25        -1.7280   -5.0350    1.2820 c3        1 MOL     -0.130807
     81 C26        -0.8440   -3.7800    1.3540 c         1 MOL      0.723939
     82 O14        -1.2210   -2.6830    0.8840 o         1 MOL     -0.621656
     83 C27        -1.3870   -5.8790    0.0680 c3        1 MOL      0.405519
     84 C28        -1.8490   -7.3630    0.0910 c3        1 MOL     -0.416459
     85 O15        -1.9560   -5.3090   -1.0950 oh        1 MOL     -0.636023
     86 H35        -3.4740   -3.8330    0.6930 hn        1 MOL      0.312751
     87 H36        -1.5980   -5.6130    2.1920 h1        1 MOL      0.109000
     88 H37        -0.3050   -5.9860    0.0270 h1        1 MOL      0.021443
     89 H38        -2.9030   -5.4040   -0.9820 ho        1 MOL      0.446263
     90 H39        -1.2670   -8.0260   -0.5560 hc        1 MOL      0.109813
     91 H40        -1.7660   -7.7170    1.1190 hc        1 MOL      0.109813
     92 H41        -2.8490   -7.5070   -0.3230 hc        1 MOL      0.109813
     93 N9          0.3380   -3.8530    1.8950 n         1 MOL     -0.663144
     94 C29         1.4140   -2.8070    1.7570 c3        1 MOL      0.248783
     95 C30         2.4870   -3.3040    0.7890 c         1 MOL      0.429372
     96 O16         3.0570   -4.3800    0.9150 o         1 MOL     -0.552700
     97 C31         1.9030   -2.6560    3.2840 c3        1 MOL      0.025496
     98 C32         1.0130   -1.5840    3.9180 c3        1 MOL     -0.041605
     99 C33         3.3690   -2.3600    3.4520 c3        1 MOL     -0.108742
    100 C34         1.4730   -1.1000    5.3390 c3        1 MOL     -0.202276
    101 H42         0.6860   -4.7330    2.2260 hn        1 MOL      0.299285
    102 H43         0.9950   -1.9090    1.3010 h1        1 MOL     -0.041373
    103 H44         1.7960   -3.6100    3.8150 hc        1 MOL      0.043405
    104 H45         0.0140   -2.0080    3.9640 hc        1 MOL      0.054028
    105 H46         1.0070   -0.7470    3.2130 hc        1 MOL      0.054028
    106 H47         3.9320   -3.0730    2.8620 hc        1 MOL      0.015934
    107 H48         3.5470   -1.3630    3.0510 hc        1 MOL      0.015934
    108 H49         3.6980   -2.4450    4.4900 hc        1 MOL      0.015934
    109 H50         2.3850   -0.4940    5.3460 hc        1 MOL      0.053259
    110 H51         0.6230   -0.4880    5.6220 hc        1 MOL      0.053259
    111 H52         1.6870   -1.8580    6.0860 hc        1 MOL      0.053259
    112 N10         2.7950   -2.4670   -0.1550 n         1 MOL     -0.122377
    113 C35         3.9270   -2.5720   -1.0990 c3        1 MOL      0.009611
    114 C36         5.1800   -2.0380   -0.4450 c         1 MOL      0.211792
    115 O17         5.1190   -1.3970    0.5630 o         1 MOL     -0.128014
    116 C37         3.6420   -1.8420   -2.4000 c3        1 MOL      0.127991
    117 C38         2.7500   -2.6220   -3.3690 c3        1 MOL     -0.279086
    118 O18         3.0510   -0.5200   -2.3380 oh        1 MOL     -0.599023
    119 H53         2.2210   -1.6310   -0.1670 hn        1 MOL      0.077763
    120 H54         3.9840   -3.6510   -1.2720 h1        1 MOL      0.098615
    121 H55         4.5810   -1.6600   -2.9470 h1        1 MOL      0.063238
    122 H56         2.2130   -0.5960   -1.8730 ho        1 MOL      0.439461
    123 H57         1.6950   -2.5060   -3.1000 hc        1 MOL      0.077530
    124 H58         2.8250   -2.2730   -4.4010 hc        1 MOL      0.077530
    125 H59         3.1590   -3.6310   -3.3450 hc        1 MOL      0.077530
    126 N11         6.4140   -2.0610   -1.0520 n         1 MOL     -0.262291
    127 C39         7.5900   -1.2460   -0.7120 c3        1 MOL     -0.344604
    128 C40         7.4200    0.2390   -0.5070 c         1 MOL      0.410375
    129 O19         7.9580    0.6950    0.5050 o         1 MOL     -0.441772
    130 C41         8.8150   -1.4700   -1.5800 c3        1 MOL      0.354134
    131 C42         9.2310   -2.9330   -1.3870 c3        1 MOL     -0.362192
    132 O20         8.4470   -1.2540   -2.8870 oh        1 MOL     -0.593724
    133 H60         6.4490   -2.5670   -1.9130 hn        1 MOL      0.270577
    134 H61         7.8040   -1.6560    0.2750 h1        1 MOL      0.184942
    135 H62         9.6410   -0.8150   -1.2990 h1        1 MOL      0.059870
    136 H63         9.1640   -0.7820   -3.3250 ho        1 MOL      0.393496
    137 H64         8.4800   -3.6030   -1.7970 hc        1 MOL      0.103219
    138 H65        10.1900   -3.1290   -1.8700 hc        1 MOL      0.103219
    139 H66         9.3750   -3.1610   -0.3300 hc        1 MOL      0.103219
    140 N12         6.6760    1.0440   -1.3800 n         1 MOL     -0.250521
    141 C43         6.5170    2.4810   -1.1630 c3        1 MOL     -0.005519
    142 C44         5.8220    2.7110    0.0960 c         1 MOL      0.360454
    143 O21         6.3740    3.4960    0.8880 o         1 MOL     -0.465657
    144 C45         5.9060    3.1580   -2.4290 c3        1 MOL     -0.223551
    145 C46         4.5770    2.4900   -2.8550 c3        1 MOL      0.187430
    146 C47         4.1500    2.9660   -4.2780 c3        1 MOL     -0.141810
    147 C48         2.7030    2.4400   -4.4510 c3        1 MOL     -0.021116
    148 N13         2.8450    0.9770   -4.7480 n4        1 MOL     -0.454066
    149 H67         6.4130    0.6680   -2.2790 hn        1 MOL      0.180426
    150 H68         7.5040    2.9320   -1.0410 h1        1 MOL      0.107694
    151 H69         6.6780    3.0390   -3.1860 hc        1 MOL      0.080751
    152 H70         5.7610    4.2230   -2.2670 hc        1 MOL      0.080751
    153 H71         3.8350    2.7950   -2.1290 hc        1 MOL      0.007083
    154 H72         4.6230    1.4070   -2.8990 hc        1 MOL      0.007083
    155 H73         4.8630    2.5150   -4.9570 hc        1 MOL      0.054986
    156 H74         4.1850    4.0540   -4.3230 hc        1 MOL      0.054986
    157 H75         2.2120    3.0080   -5.2420 hx        1 MOL      0.114474
    158 H76         2.0710    2.5830   -3.5800 hx        1 MOL      0.114474
    159 H77         1.9960    0.4920   -4.9690 hn        1 MOL      0.338050
    160 H78         3.4550    0.9200   -5.5530 hn        1 MOL      0.338050
    161 H79         3.2480    0.5590   -3.9140 hn        1 MOL      0.338050
    162 N14         4.8220    1.8300    0.4530 n         1 MOL     -0.164561
    163 C49         4.0450    1.8990    1.7520 c3        1 MOL     -0.215857
    164 C50         4.9270    1.5770    2.8950 c         1 MOL      0.447231
    165 O22         5.0400    2.2970    3.9120 o         1 MOL     -0.533985
    166 C51         2.7730    1.0580    1.6350 c3        1 MOL      0.115544
    167 C52         2.0320    1.4890    0.3330 c3        1 MOL     -0.001746
    168 C53         0.8080    0.6880    0.0340 c         1 MOL      0.536936
    169 O23         0.9220   -0.4000   -0.5910 o         1 MOL     -0.572750
    170 O24        -0.2420    1.2830   -0.1750 o         1 MOL     -0.572750
    171 H80         4.5740    1.0690   -0.1720 hn        1 MOL      0.141913
    172 H81         3.7170    2.9360    1.7680 h1        1 MOL      0.124962
    173 H82         2.1010    1.1460    2.4890 hc        1 MOL      0.032557
    174 H83         2.9370   -0.0140    1.6240 hc        1 MOL      0.032557
    175 H84         2.6820    1.2630   -0.5140 hc        1 MOL     -0.010050
    176 H85         1.8510    2.5610    0.3260 hc        1 MOL     -0.010050
    177 N15         5.6520    0.4330    2.7320 n         1 MOL      0.102535
    178 C54         6.5090   -0.1100    3.7770 c3        1 MOL     -0.357415
    179 H86         6.1260    0.1890    4.7530 h1        1 MOL      0.116454
    180 H87         6.5190   -1.1980    3.7100 h1        1 MOL      0.116454
    181 H88         7.5220    0.2720    3.6520 h1        1 MOL      0.116454
    182 H89         5.5140   -0.1180    1.9030 hn        1 MOL     -0.043395
    183 Ca1        -1.6190   -0.9260   -1.1930 Ca        1 MOL      1.750422
    184 O25        -0.2630   -0.4830   -3.4030 oh        1 MOL     -0.891706
    185 H90        -0.0650   -1.0180   -4.1770 ho        1 MOL      0.408316
    186 H91        -0.8240    0.2190   -3.7380 ho        1 MOL      0.408316
    187 O26        -0.4710   -3.3640   -1.8960 oh        1 MOL     -0.891706
    188 H92        -0.1960   -3.5840   -2.7850 ho        1 MOL      0.408316
    189 H93        -1.0170   -4.0970   -1.6240 ho        1 MOL      0.408316
@<TRIPOS>BOND
     1    1    2 1   
     2    1    4 1   
     3    1    5 1   
     4    1    6 1   
     5    2    3 2   
     6    2    7 1   
     7    7    8 1   
     8    7   15 1   
     9    8    9 1   
    10    8   11 1   
    11    8   16 1   
    12    9   10 2   
    13    9   19 1   
    14   11   12 1   
    15   11   17 1   
    16   11   18 1   
    17   12   13 1   
    18   12   14 1   
    19   19   20 1   
    20   19   28 1   
    21   20   21 1   
    22   20   23 1   
    23   20   29 1   
    24   21   22 2   
    25   21   41 1   
    26   23   24 1   
    27   23   30 1   
    28   23   31 1   
    29   24   25 1   
    30   24   32 1   
    31   24   33 1   
    32   25   26 1   
    33   25   34 1   
    34   25   35 1   
    35   26   27 1   
    36   26   36 1   
    37   26   37 1   
    38   27   38 1   
    39   27   39 1   
    40   27   40 1   
    41   41   42 1   
    42   41   49 1   
    43   42   43 1   
    44   42   45 1   
    45   42   50 1   
    46   43   44 2   
    47   43   53 1   
    48   45   46 1   
    49   45   51 1   
    50   45   52 1   
    51   46   47 1   
    52   46   48 1   
    53   53   54 1   
    54   53   57 1   
    55   54   55 1   
    56   54   58 1   
    57   54   59 1   
    58   55   56 2   
    59   55   60 1   
    60   60   61 1   
    61   60   68 1   
    62   61   62 1   
    63   61   64 1   
    64   61   69 1   
    65   62   63 2   
    66   62   72 1   
    67   64   65 1   
    68   64   70 1   
    69   64   71 1   
    70   65   66 1   
    71   65   67 1   
    72   72   73 1   
    73   72   76 1   
    74   73   74 1   
    75   73   77 1   
    76   73   78 1   
    77   74   75 2   
    78   74   79 1   
    79   79   80 1   
    80   79   86 1   
    81   80   81 1   
    82   80   83 1   
    83   80   87 1   
    84   81   82 2   
    85   81   93 1   
    86   83   84 1   
    87   83   85 1   
    88   83   88 1   
    89   84   90 1   
    90   84   91 1   
    91   84   92 1   
    92   85   89 1   
    93   93   94 1   
    94   93  101 1   
    95   94   95 1   
    96   94   97 1   
    97   94  102 1   
    98   95   96 2   
    99   95  112 1   
   100   97   98 1   
   101   97   99 1   
   102   97  103 1   
   103   98  100 1   
   104   98  104 1   
   105   98  105 1   
   106   99  106 1   
   107   99  107 1   
   108   99  108 1   
   109  100  109 1   
   110  100  110 1   
   111  100  111 1   
   112  112  113 1   
   113  112  119 1   
   114  113  114 1   
   115  113  116 1   
   116  113  120 1   
   117  114  115 2   
   118  114  126 1   
   119  116  117 1   
   120  116  118 1   
   121  116  121 1   
   122  117  123 1   
   123  117  124 1   
   124  117  125 1   
   125  118  122 1   
   126  126  127 1   
   127  126  133 1   
   128  127  128 1   
   129  127  130 1   
   130  127  134 1   
   131  128  129 2   
   132  128  140 1   
   133  130  131 1   
   134  130  132 1   
   135  130  135 1   
   136  131  137 1   
   137  131  138 1   
   138  131  139 1   
   139  132  136 1   
   140  140  141 1   
   141  140  149 1   
   142  141  142 1   
   143  141  144 1   
   144  141  150 1   
   145  142  143 2   
   146  142  162 1   
   147  144  145 1   
   148  144  151 1   
   149  144  152 1   
   150  145  146 1   
   151  145  153 1   
   152  145  154 1   
   153  146  147 1   
   154  146  155 1   
   155  146  156 1   
   156  147  148 1   
   157  147  157 1   
   158  147  158 1   
   159  148  159 1   
   160  148  160 1   
   161  148  161 1   
   162  162  163 1   
   163  162  171 1   
   164  163  164 1   
   165  163  166 1   
   166  163  172 1   
   167  164  165 2   
   168  164  177 1   
   169  166  167 1   
   170  166  173 1   
   171  166  174 1   
   172  167  168 1   
   173  167  175 1   
   174  167  176 1   
   175  168  169 1   
   176  168  170 1   
   177  177  178 1   
   178  177  182 1   
   179  178  179 1   
   180  178  180 1   
   181  178  181 1   
   182  184  185 1   
   183  184  186 1   
   184  187  188 1   
   185  187  189 1   
@<TRIPOS>SUBSTRUCTURE
     1 MOL         1 TEMP              0 ****  ****    0 ROOT
