@<TRIPOS>MOLECULE
MOL
  179   176     1     0     0
SMALL
resp


@<TRIPOS>ATOM
      1 C1          1.5050    4.2090    3.9310 c3        1 MOL     -0.439226
      2 C2          0.7610    3.4110    2.8570 c         1 MOL      0.710872
      3 O1          1.2870    3.3740    1.7630 o         1 MOL     -0.594641
      4 H1          0.8620    5.0080    4.2990 hc        1 MOL      0.104226
      5 H2          1.7710    3.5480    4.7570 hc        1 MOL      0.104226
      6 H3          2.4100    4.6390    3.5040 hc        1 MOL      0.104226
      7 N1         -0.4840    3.0970    3.1240 n         1 MOL     -0.658501
      8 C3         -1.3640    2.5910    2.0950 c3        1 MOL      0.231991
      9 C4         -2.1830    3.6920    1.4770 c         1 MOL      0.496006
     10 O2         -3.2940    3.9490    1.9860 o         1 MOL     -0.509569
     11 C5         -2.2580    1.4900    2.6780 c3        1 MOL     -0.152095
     12 C6         -3.0800    0.7650    1.5990 c         1 MOL      0.649008
     13 O3         -4.3120    0.4060    1.8830 o         1 MOL     -0.701010
     14 O4         -2.6440    0.4980    0.4880 o         1 MOL     -0.701010
     15 H4         -0.8540    3.2730    4.0460 hn        1 MOL      0.357451
     16 H5         -0.7750    2.1720    1.2900 h1        1 MOL     -0.023090
     17 H6         -2.9130    1.8620    3.4660 hc        1 MOL      0.044320
     18 H7         -1.5960    0.6960    3.0320 hc        1 MOL      0.044320
     19 N2         -1.6680    4.4410    0.5350 n         1 MOL     -0.420118
     20 C7         -2.3730    5.6340    0.0190 c3        1 MOL      0.079527
     21 C8         -3.5670    5.2860   -0.8500 c         1 MOL      0.380178
     22 O5         -4.5750    5.9850   -0.7830 o         1 MOL     -0.539506
     23 C9         -1.3910    6.3910   -0.8130 c3        1 MOL     -0.373002
     24 C10        -0.2990    7.0450    0.0750 c3        1 MOL      0.273579
     25 C11         0.7340    7.8990   -0.7010 c3        1 MOL     -0.124145
     26 C12         1.8860    8.6470    0.1120 c3        1 MOL     -0.009202
     27 N3          3.0190    7.7290    0.4560 n4        1 MOL     -0.288196
     28 H8         -0.7340    4.2580    0.2160 hn        1 MOL      0.345666
     29 H9         -2.6520    6.2200    0.8860 h1        1 MOL      0.091439
     30 H10        -1.9230    7.2460   -1.2360 hc        1 MOL      0.117191
     31 H11        -1.0230    5.7180   -1.5870 hc        1 MOL      0.117191
     32 H12         0.2150    6.2990    0.6900 hc        1 MOL     -0.032041
     33 H13        -0.7420    7.6760    0.8460 hc        1 MOL     -0.032041
     34 H14         0.1440    8.7460   -1.0590 hc        1 MOL      0.060721
     35 H15         1.0610    7.3050   -1.5510 hc        1 MOL      0.060721
     36 H16         1.5800    9.1150    1.0410 hx        1 MOL      0.093815
     37 H17         2.3470    9.2870   -0.6320 hx        1 MOL      0.093815
     38 H18         3.5030    7.4030   -0.3630 hn        1 MOL      0.316758
     39 H19         3.6570    8.2990    0.9990 hn        1 MOL      0.316758
     40 H20         2.7710    6.8820    0.9450 hn        1 MOL      0.316758
     41 N4         -3.5680    4.0990   -1.4010 n         1 MOL     -0.120576
     42 C13        -4.5840    3.6220   -2.3470 c3        1 MOL     -0.075348
     43 C14        -5.7520    2.9800   -1.6100 c         1 MOL      0.414582
     44 O6         -6.8200    2.7500   -2.1710 o         1 MOL     -0.517134
     45 C15        -4.0460    2.6550   -3.4300 c3        1 MOL     -0.122422
     46 C16        -3.1480    1.5330   -3.0170 c         1 MOL      0.695405
     47 O7         -3.4970    0.3470   -3.2160 o         1 MOL     -0.715749
     48 O8         -2.0710    1.7530   -2.4170 o         1 MOL     -0.715749
     49 H21        -2.6900    3.6020   -1.3310 hn        1 MOL      0.141076
     50 H22        -5.0210    4.4240   -2.9340 h1        1 MOL      0.119973
     51 H23        -3.5590    3.2440   -4.2040 hc        1 MOL      0.043194
     52 H24        -4.9180    2.2390   -3.9390 hc        1 MOL      0.043194
     53 N5         -5.6650    2.7610   -0.2540 n         1 MOL     -0.066600
     54 C17        -6.8060    2.3090    0.5670 c3        1 MOL     -0.310066
     55 C18        -7.1030    0.8620    0.3510 c         1 MOL      0.614136
     56 O9         -8.2410    0.4860    0.5660 o         1 MOL     -0.601342
     57 H25        -4.8390    3.0370    0.2400 hn        1 MOL      0.170852
     58 H26        -7.7270    2.8480    0.3700 h1        1 MOL      0.139106
     59 H27        -6.5630    2.3250    1.6370 h1        1 MOL      0.139106
     60 N6         -6.2780   -0.0010   -0.2550 n         1 MOL     -0.196840
     61 C19        -6.6010   -1.3770   -0.6900 c3        1 MOL     -0.113576
     62 C20        -6.2190   -2.4790    0.4170 c         1 MOL      0.321361
     63 O10        -6.5810   -3.6420    0.3440 o         1 MOL     -0.501114
     64 C21        -5.8450   -1.5470   -2.0350 c3        1 MOL     -0.141221
     65 C22        -4.4690   -2.0770   -1.8410 c         1 MOL      0.257353
     66 N7         -4.2790   -3.3060   -2.2590 n         1 MOL     -0.334315
     67 O11        -3.6980   -1.7210   -1.0050 o         1 MOL     -0.399421
     68 H28        -5.2920    0.2200   -0.2380 hn        1 MOL      0.143437
     69 H29        -7.6890   -1.3680   -0.8240 h1        1 MOL      0.151796
     70 H30        -5.9300   -0.6390   -2.6180 hc        1 MOL      0.097751
     71 H31        -6.4660   -2.2310   -2.6110 hc        1 MOL      0.097751
     72 H32        -4.9220   -3.7790   -2.8810 hn        1 MOL      0.228495
     73 H33        -3.3470   -3.6600   -2.0700 hn        1 MOL      0.228495
     74 N8         -5.5470   -2.0940    1.5300 n         1 MOL     -0.030846
     75 C23        -5.3540   -2.8050    2.7850 c3        1 MOL     -0.194564
     76 C24        -3.9460   -3.1790    3.1070 c         1 MOL      0.596533
     77 O12        -3.7470   -3.4370    4.2970 o         1 MOL     -0.574528
     78 H34        -5.2070   -1.1480    1.4680 hn        1 MOL      0.152907
     79 H35        -5.9270   -3.7130    2.5960 h1        1 MOL      0.101825
     80 H36        -5.8570   -2.2570    3.5920 h1        1 MOL      0.101825
     81 N9         -2.9420   -3.1000    2.1900 n         1 MOL     -0.231327
     82 C25        -1.5930   -3.6220    2.4140 c3        1 MOL     -0.178303
     83 C26        -0.5700   -2.7820    1.6790 c         1 MOL      0.677428
     84 O13        -0.8520   -2.2190    0.6620 o         1 MOL     -0.615761
     85 C27        -1.6090   -5.0770    2.0840 c3        1 MOL     -0.005584
     86 C28        -2.2400   -5.4400    0.7760 ca        1 MOL     -0.117255
     87 C29        -1.4040   -5.6690   -0.3270 ca        1 MOL     -0.053354
     88 C30        -3.6600   -5.6350    0.6930 ca        1 MOL     -0.053354
     89 C31        -1.9910   -6.0550   -1.5360 ca        1 MOL     -0.305136
     90 C32        -4.2330   -5.9500   -0.5330 ca        1 MOL     -0.305136
     91 C33        -3.4020   -6.1110   -1.6920 ca        1 MOL      0.393733
     92 O14        -3.9720   -6.3990   -2.8680 oh        1 MOL     -0.575422
     93 H37        -3.0620   -2.6530    1.2950 hn        1 MOL      0.224509
     94 H38        -1.5020   -3.6130    3.4980 h1        1 MOL      0.080195
     95 H39        -2.0940   -5.5600    2.9280 hc        1 MOL      0.057040
     96 H40        -0.5930   -5.4700    2.1260 hc        1 MOL      0.057040
     97 H41        -0.3330   -5.6040   -0.2020 ha        1 MOL      0.119073
     98 H42        -4.2910   -5.4240    1.5390 ha        1 MOL      0.119073
     99 H43        -1.3420   -6.0680   -2.3990 ha        1 MOL      0.129971
    100 H44        -5.2980   -5.9610   -0.7310 ha        1 MOL      0.129971
    101 H45        -4.9060   -6.5740   -2.7270 ho        1 MOL      0.433581
    102 N10         0.6630   -2.7580    2.1680 n         1 MOL     -0.455101
    103 C34         1.8660   -2.1130    1.6140 c3        1 MOL      0.001399
    104 C35         2.9020   -3.1840    1.2850 c         1 MOL      0.481132
    105 O15         3.0290   -4.2110    1.9010 o         1 MOL     -0.534671
    106 C36         2.4240   -1.0020    2.4970 c3        1 MOL     -0.021120
    107 C37         2.8150   -1.6280    3.8530 c3        1 MOL     -0.166023
    108 C38         1.3240    0.0590    2.6480 c3        1 MOL     -0.850198
    109 C39         3.2240   -0.5880    4.9660 c3        1 MOL     -0.195956
    110 H46         0.7710   -3.3960    2.9530 hn        1 MOL      0.293416
    111 H47         1.7100   -1.6010    0.6590 h1        1 MOL      0.061277
    112 H48         3.3370   -0.5880    2.0720 hc        1 MOL      0.044678
    113 H49         3.7000   -2.2270    3.6290 hc        1 MOL      0.099872
    114 H50         2.0410   -2.2860    4.2440 hc        1 MOL      0.099872
    115 H51         1.6610    0.8500    3.3220 hc        1 MOL      0.269641
    116 H52         1.0650    0.5230    1.6960 hc        1 MOL      0.269641
    117 H53         0.4550   -0.2770    3.2210 hc        1 MOL      0.269641
    118 H54         2.3160   -0.1720    5.4030 hc        1 MOL      0.060166
    119 H55         3.8580   -1.1300    5.6680 hc        1 MOL      0.060166
    120 H56         3.8200    0.2030    4.4930 hc        1 MOL      0.060166
    121 N11         3.6910   -2.8220    0.2610 n         1 MOL     -0.195280
    122 C40         4.9190   -3.4960   -0.2050 c3        1 MOL     -0.014643
    123 C41         6.1390   -2.6010    0.1510 c         1 MOL      0.453135
    124 O16         6.0880   -1.4930    0.7260 o         1 MOL     -0.388709
    125 C42         4.9410   -3.6480   -1.7780 c3        1 MOL     -0.421988
    126 O17         5.0050   -2.4140   -2.3140 oh        1 MOL     -0.468128
    127 H57         3.3500   -2.0080   -0.2420 hn        1 MOL      0.198330
    128 H58         5.0630   -4.4420    0.3220 h1        1 MOL      0.103914
    129 H59         4.0020   -4.0360   -2.1680 h1        1 MOL      0.192068
    130 H60         5.7300   -4.2270   -2.2600 h1        1 MOL      0.192068
    131 H61         4.2320   -2.3150   -2.8740 ho        1 MOL      0.439834
    132 N12         7.3300   -3.1370   -0.0890 n         1 MOL     -0.421141
    133 C43         8.5750   -2.4390    0.1250 c3        1 MOL      0.182520
    134 C44         8.6460   -1.1320   -0.7220 c         1 MOL      0.590579
    135 O18         9.1690   -0.1950   -0.1630 o         1 MOL     -0.546903
    136 C45         9.6880   -3.3490   -0.2770 c3        1 MOL     -0.340461
    137 H62         7.2820   -4.0600   -0.4850 hn        1 MOL      0.277513
    138 H63         8.6930   -2.1500    1.1690 h1        1 MOL      0.064621
    139 H64        10.6300   -2.7990   -0.2920 hc        1 MOL      0.098330
    140 H65         9.6890   -4.1680    0.4560 hc        1 MOL      0.098330
    141 H66         9.4990   -3.7840   -1.2560 hc        1 MOL      0.098330
    142 N13         8.0000   -1.1130   -1.9070 n         1 MOL     -0.560629
    143 C46         7.9640    0.2040   -2.5980 c3        1 MOL      0.181560
    144 C47         6.9200    1.2420   -2.0200 c         1 MOL      0.339061
    145 O19         7.1600    2.4620   -2.1350 o         1 MOL     -0.508654
    146 C48         7.7290   -0.0010   -4.1650 c3        1 MOL     -0.245273
    147 H67         7.3410   -1.8310   -2.1750 hn        1 MOL      0.319822
    148 H68         8.8920    0.7590   -2.4600 h1        1 MOL      0.080526
    149 H69         7.9280    0.9800   -4.5970 hc        1 MOL      0.063013
    150 H70         8.3130   -0.8230   -4.5740 hc        1 MOL      0.063013
    151 H71         6.6880   -0.2200   -4.3580 hc        1 MOL      0.063013
    152 N14         5.9480    0.6880   -1.2980 n         1 MOL     -0.019896
    153 C49         4.9830    1.6200   -0.6400 c3        1 MOL     -0.105698
    154 C50         5.6520    2.1990    0.6730 c         1 MOL      0.472499
    155 O20         5.4940    3.4070    0.8540 o         1 MOL     -0.570918
    156 C51         3.6520    0.9250   -0.3750 c3        1 MOL      0.008410
    157 C52         2.8660    0.7580   -1.6800 c3        1 MOL     -0.351094
    158 C53         1.4910    0.1910   -1.4460 c         1 MOL      0.770706
    159 O21         1.1970   -0.9760   -1.7180 o         1 MOL     -0.723930
    160 O22         0.6590    0.9980   -1.0440 o         1 MOL     -0.723930
    161 H72         5.8380   -0.3080   -1.2310 hn        1 MOL      0.076244
    162 H73         4.6940    2.4520   -1.2880 h1        1 MOL      0.087694
    163 H74         3.0540    1.6080    0.2450 hc        1 MOL      0.094954
    164 H75         3.7070   -0.1080   -0.0290 hc        1 MOL      0.094954
    165 H76         3.4470    0.1430   -2.3640 hc        1 MOL      0.063137
    166 H77         2.6310    1.7320   -2.1030 hc        1 MOL      0.063137
    167 N15         6.3720    1.3230    1.4050 n         1 MOL     -0.095008
    168 C54         7.1490    1.8560    2.5730 c3        1 MOL     -0.449835
    169 H78         6.6110    2.6950    3.0140 h1        1 MOL      0.157043
    170 H79         7.2690    1.0700    3.3200 h1        1 MOL      0.157043
    171 H80         8.1290    2.1900    2.2360 h1        1 MOL      0.157043
    172 H81         6.4630    0.3650    1.0930 hn        1 MOL      0.145634
    173 Ca1        -1.4770   -0.5780   -1.5600 Ca        1 MOL      1.727873
    174 O23        -0.6600   -0.4110   -4.2230 oh        1 MOL     -0.827995
    175 H82        -0.7210    0.3570   -4.7840 ho        1 MOL      0.405265
    176 H83        -0.7020   -1.1550   -4.8300 ho        1 MOL      0.405265
    177 O24        -1.4400   -3.0700   -2.5950 oh        1 MOL     -0.827995
    178 H84        -1.6980   -3.7670   -3.1890 ho        1 MOL      0.405265
    179 H85        -0.5760   -3.3350   -2.2810 ho        1 MOL      0.405265
@<TRIPOS>BOND
     1    1    2 1   
     2    1    4 1   
     3    1    5 1   
     4    1    6 1   
     5    2    3 2   
     6    2    7 1   
     7    7    8 1   
     8    7   15 1   
     9    8    9 1   
    10    8   11 1   
    11    8   16 1   
    12    9   10 2   
    13    9   19 1   
    14   11   12 1   
    15   11   17 1   
    16   11   18 1   
    17   12   13 1   
    18   12   14 1   
    19   19   20 1   
    20   19   28 1   
    21   20   21 1   
    22   20   23 1   
    23   20   29 1   
    24   21   22 2   
    25   21   41 1   
    26   23   24 1   
    27   23   30 1   
    28   23   31 1   
    29   24   25 1   
    30   24   32 1   
    31   24   33 1   
    32   25   26 1   
    33   25   34 1   
    34   25   35 1   
    35   26   27 1   
    36   26   36 1   
    37   26   37 1   
    38   27   38 1   
    39   27   39 1   
    40   27   40 1   
    41   41   42 1   
    42   41   49 1   
    43   42   43 1   
    44   42   45 1   
    45   42   50 1   
    46   43   44 2   
    47   43   53 1   
    48   45   46 1   
    49   45   51 1   
    50   45   52 1   
    51   46   47 1   
    52   46   48 1   
    53   53   54 1   
    54   53   57 1   
    55   54   55 1   
    56   54   58 1   
    57   54   59 1   
    58   55   56 2   
    59   55   60 1   
    60   60   61 1   
    61   60   68 1   
    62   61   62 1   
    63   61   64 1   
    64   61   69 1   
    65   62   63 2   
    66   62   74 1   
    67   64   65 1   
    68   64   70 1   
    69   64   71 1   
    70   65   66 1   
    71   65   67 2   
    72   66   72 1   
    73   66   73 1   
    74   74   75 1   
    75   74   78 1   
    76   75   76 1   
    77   75   79 1   
    78   75   80 1   
    79   76   77 2   
    80   76   81 1   
    81   81   82 1   
    82   81   93 1   
    83   82   83 1   
    84   82   85 1   
    85   82   94 1   
    86   83   84 2   
    87   83  102 1   
    88   85   86 1   
    89   85   95 1   
    90   85   96 1   
    91   86   87 ar  
    92   86   88 ar  
    93   87   89 ar  
    94   87   97 1   
    95   88   90 ar  
    96   88   98 1   
    97   89   91 ar  
    98   89   99 1   
    99   90   91 ar  
   100   90  100 1   
   101   91   92 1   
   102   92  101 1   
   103  102  103 1   
   104  102  110 1   
   105  103  104 1   
   106  103  106 1   
   107  103  111 1   
   108  104  105 2   
   109  104  121 1   
   110  106  107 1   
   111  106  108 1   
   112  106  112 1   
   113  107  109 1   
   114  107  113 1   
   115  107  114 1   
   116  108  115 1   
   117  108  116 1   
   118  108  117 1   
   119  109  118 1   
   120  109  119 1   
   121  109  120 1   
   122  121  122 1   
   123  121  127 1   
   124  122  123 1   
   125  122  125 1   
   126  122  128 1   
   127  123  124 2   
   128  123  132 1   
   129  125  126 1   
   130  125  129 1   
   131  125  130 1   
   132  126  131 1   
   133  132  133 1   
   134  132  137 1   
   135  133  134 1   
   136  133  136 1   
   137  133  138 1   
   138  134  135 2   
   139  134  142 1   
   140  136  139 1   
   141  136  140 1   
   142  136  141 1   
   143  142  143 1   
   144  142  147 1   
   145  143  144 1   
   146  143  146 1   
   147  143  148 1   
   148  144  145 2   
   149  144  152 1   
   150  146  149 1   
   151  146  150 1   
   152  146  151 1   
   153  152  153 1   
   154  152  161 1   
   155  153  154 1   
   156  153  156 1   
   157  153  162 1   
   158  154  155 2   
   159  154  167 1   
   160  156  157 1   
   161  156  163 1   
   162  156  164 1   
   163  157  158 1   
   164  157  165 1   
   165  157  166 1   
   166  158  159 1   
   167  158  160 1   
   168  167  168 1   
   169  167  172 1   
   170  168  169 1   
   171  168  170 1   
   172  168  171 1   
   173  174  175 1   
   174  174  176 1   
   175  177  178 1   
   176  177  179 1   
@<TRIPOS>SUBSTRUCTURE
     1 MOL         1 TEMP              0 ****  ****    0 ROOT
