@<TRIPOS>MOLECULE
MOL
  179   176     1     0     0
SMALL
resp


@<TRIPOS>ATOM
      1 C1         -1.5000   -3.4340    6.7580 c3        1 MOL     -0.289580
      2 C2         -1.6230   -2.9090    5.3190 c         1 MOL      0.714663
      3 O1         -2.7480   -2.7910    4.8020 o         1 MOL     -0.555200
      4 H1         -0.7700   -2.8350    7.3010 hc        1 MOL      0.075311
      5 H2         -2.4680   -3.3640    7.2550 hc        1 MOL      0.075311
      6 H3         -1.1750   -4.4740    6.7400 hc        1 MOL      0.075311
      7 N1         -0.4900   -2.5510    4.6530 n         1 MOL     -0.623656
      8 C3         -0.3630   -2.3290    3.1780 c3        1 MOL      0.010380
      9 C4         -0.6580   -3.6120    2.3380 c         1 MOL      0.642334
     10 O2         -0.2470   -4.6910    2.8090 o         1 MOL     -0.529659
     11 C5          1.0650   -1.7740    2.8540 c3        1 MOL     -0.039834
     12 C6          1.2830   -1.0560    1.5130 c         1 MOL      0.593563
     13 O3          2.4450   -0.9070    1.0380 o         1 MOL     -0.668904
     14 O4          0.2960   -0.8760    0.7810 o         1 MOL     -0.668904
     15 H4          0.3650   -2.7070    5.1610 hn        1 MOL      0.319765
     16 H5         -1.1230   -1.6130    2.8660 h1        1 MOL      0.068045
     17 H6          1.7420   -2.6340    2.8410 hc        1 MOL      0.030081
     18 H7          1.4430   -1.1030    3.6240 hc        1 MOL      0.030081
     19 N2         -1.2300   -3.4860    1.1410 n         1 MOL     -0.378267
     20 C7         -1.5250   -4.6690    0.3040 c3        1 MOL     -0.218832
     21 C8         -0.3130   -5.4250   -0.2490 c         1 MOL      0.436043
     22 O5         -0.3300   -6.6580   -0.3270 o         1 MOL     -0.521780
     23 C9         -2.4700   -4.2400   -0.7620 c3        1 MOL      0.113099
     24 C10        -2.8860   -5.3490   -1.7040 c3        1 MOL     -0.224011
     25 C11        -3.6790   -4.6670   -2.8680 c3        1 MOL      0.024971
     26 C12        -4.4380   -5.7480   -3.6360 c3        1 MOL      0.114112
     27 N3         -5.5180   -5.1580   -4.4880 n4        1 MOL     -0.585501
     28 H8         -1.3720   -2.5690    0.7590 hn        1 MOL      0.192012
     29 H9         -2.0860   -5.3470    0.9370 h1        1 MOL      0.153580
     30 H10        -1.8570   -3.6070   -1.4000 hc        1 MOL      0.070267
     31 H11        -3.2850   -3.6870   -0.3070 hc        1 MOL      0.070267
     32 H12        -3.5480   -6.0690   -1.2180 hc        1 MOL      0.081860
     33 H13        -2.0630   -5.8670   -2.1860 hc        1 MOL      0.081860
     34 H14        -2.9620   -4.1120   -3.4780 hc        1 MOL      0.032956
     35 H15        -4.4530   -4.0540   -2.3980 hc        1 MOL      0.032956
     36 H16        -4.8730   -6.5020   -2.9710 hx        1 MOL      0.074250
     37 H17        -3.7450   -6.4370   -4.1160 hx        1 MOL      0.074250
     38 H18        -5.9590   -4.4410   -3.9270 hn        1 MOL      0.384807
     39 H19        -5.2100   -4.7840   -5.3720 hn        1 MOL      0.384807
     40 H20        -6.2030   -5.8830   -4.6530 hn        1 MOL      0.384807
     41 N4          0.7690   -4.6670   -0.6260 n         1 MOL     -0.174399
     42 C13         2.0840   -5.2680   -1.0640 c3        1 MOL     -0.022896
     43 C14         3.2810   -5.0620   -0.1250 c         1 MOL      0.481478
     44 O6          4.3360   -5.7040   -0.2360 o         1 MOL     -0.536998
     45 C15         2.4840   -4.8290   -2.5000 c3        1 MOL     -0.213537
     46 C16         2.6060   -3.3660   -2.8250 c         1 MOL      0.752973
     47 O7          2.2490   -2.5790   -1.9100 o         1 MOL     -0.706181
     48 O8          3.1090   -3.0350   -3.9340 o         1 MOL     -0.706181
     49 H21         0.6370   -3.6690   -0.6210 hn        1 MOL      0.186371
     50 H22         1.9420   -6.3450   -1.0740 h1        1 MOL      0.110718
     51 H23         1.7370   -5.1890   -3.2100 hc        1 MOL      0.062961
     52 H24         3.4650   -5.2850   -2.6120 hc        1 MOL      0.062961
     53 N5          3.1660   -4.1910    0.8200 n         1 MOL     -0.049863
     54 C17         4.2190   -4.0610    1.9160 c3        1 MOL     -0.154740
     55 C18         5.4410   -3.4420    1.3190 c         1 MOL      0.652282
     56 O9          6.5380   -3.9330    1.6180 o         1 MOL     -0.585141
     57 H25         2.4010   -3.5450    0.6960 hn        1 MOL     -0.068863
     58 H26         4.5100   -5.0300    2.3140 h1        1 MOL      0.098683
     59 H27         3.9420   -3.3780    2.7220 h1        1 MOL      0.098683
     60 N6          5.3250   -2.3900    0.5230 n         1 MOL     -0.447850
     61 C19         6.3900   -1.8220   -0.3640 c3        1 MOL      0.026867
     62 C20         6.7440   -0.4280    0.0320 c         1 MOL      0.281470
     63 O10         7.7320    0.0780   -0.5060 o         1 MOL     -0.505329
     64 C21         5.8290   -1.8100   -1.8110 c3        1 MOL     -0.173821
     65 C22         5.0220   -0.5470   -2.0860 c         1 MOL      0.654939
     66 N7          5.2930    0.0760   -3.2500 n         1 MOL     -0.840590
     67 O11         4.2120   -0.1010   -1.2900 o         1 MOL     -0.569066
     68 H28         4.3990   -2.0650    0.2770 hn        1 MOL      0.219306
     69 H29         7.2860   -2.4360   -0.3630 h1        1 MOL      0.153753
     70 H30         5.1070   -2.6330   -1.9290 hc        1 MOL      0.091144
     71 H31         6.6360   -1.9220   -2.5320 hc        1 MOL      0.091144
     72 H32         6.0300   -0.3960   -3.7510 hn        1 MOL      0.394599
     73 H33         4.8790    0.9610   -3.5020 hn        1 MOL      0.394599
     74 N8          6.1020    0.1770    1.0560 n         1 MOL      0.072145
     75 C23         6.5340    1.4660    1.6470 c3        1 MOL     -0.355916
     76 C24         5.5620    2.6470    1.4740 c         1 MOL      0.586561
     77 O12         5.9500    3.7000    1.9690 o         1 MOL     -0.495186
     78 H34         5.6250   -0.4270    1.7130 hn        1 MOL      0.148622
     79 H35         7.4970    1.7670    1.2220 h1        1 MOL      0.136588
     80 H36         6.6640    1.2930    2.7170 h1        1 MOL      0.136588
     81 N9          4.3280    2.4100    0.9960 n         1 MOL     -0.330545
     82 C25         3.2900    3.4100    1.0740 c3        1 MOL     -0.028703
     83 C26         1.9030    2.7240    1.0420 c         1 MOL      0.593026
     84 O13         1.6910    1.8580    0.2160 o         1 MOL     -0.546421
     85 C27         3.4610    4.2510   -0.2200 c3        1 MOL      0.046544
     86 C28         4.7970    4.8710   -0.5530 ca        1 MOL      0.045238
     87 C29         5.0380    6.0780    0.1070 ca        1 MOL     -0.235809
     88 C30         5.7020    4.3350   -1.4940 ca        1 MOL     -0.235809
     89 C31         6.1870    6.7470   -0.1450 ca        1 MOL     -0.183193
     90 C32         6.8100    5.0680   -1.8050 ca        1 MOL     -0.183193
     91 C33         7.1010    6.2870   -1.1290 ca        1 MOL      0.285301
     92 O14         8.2700    6.9220   -1.4220 oh        1 MOL     -0.446793
     93 H37         4.0800    1.4910    0.6650 hn        1 MOL      0.145210
     94 H38         3.4490    4.0450    1.9500 h1        1 MOL      0.056587
     95 H39         2.6450    4.9750   -0.2580 hc        1 MOL     -0.005798
     96 H40         3.2380    3.5210   -0.9960 hc        1 MOL     -0.005798
     97 H41         4.3670    6.3310    0.9150 ha        1 MOL      0.174637
     98 H42         5.5330    3.3500   -1.9140 ha        1 MOL      0.174637
     99 H43         6.4310    7.6440    0.4070 ha        1 MOL      0.133170
    100 H44         7.4450    4.6880   -2.5840 ha        1 MOL      0.133170
    101 H45         8.6370    6.3970   -2.1480 ho        1 MOL      0.330678
    102 N10         0.9720    3.0620    1.9310 n         1 MOL     -0.514024
    103 C34        -0.4580    2.6790    1.7620 c3        1 MOL     -0.012663
    104 C35        -1.3040    3.8220    1.0720 c         1 MOL      0.432623
    105 O15        -1.3890    4.9920    1.5820 o         1 MOL     -0.525566
    106 C36        -1.0330    2.1650    3.1300 c3        1 MOL      0.109978
    107 C37        -2.3870    1.5500    3.1220 c3        1 MOL      0.025887
    108 C38        -1.0440    3.1810    4.3030 c3        1 MOL     -0.397348
    109 C39        -2.7140    0.6220    4.2720 c3        1 MOL     -0.258103
    110 H46         1.2120    3.7400    2.6350 hn        1 MOL      0.320677
    111 H47        -0.5100    1.8300    1.0730 h1        1 MOL      0.115242
    112 H48        -0.2960    1.4430    3.4880 hc        1 MOL      0.065252
    113 H49        -2.2370    0.8710    2.2830 hc        1 MOL      0.032654
    114 H50        -3.1430    2.3150    2.9220 hc        1 MOL      0.032654
    115 H51        -0.0510    3.5980    4.4380 hc        1 MOL      0.096690
    116 H52        -1.8370    3.9250    4.1850 hc        1 MOL      0.096690
    117 H53        -1.1830    2.6890    5.2600 hc        1 MOL      0.096690
    118 H54        -3.1160    1.1700    5.1270 hc        1 MOL      0.066211
    119 H55        -3.4570   -0.0860    3.9020 hc        1 MOL      0.066211
    120 H56        -1.8380    0.0550    4.5810 hc        1 MOL      0.066211
    121 N11        -1.9500    3.4710   -0.0520 n         1 MOL     -0.175567
    122 C40        -3.0400    4.2610   -0.8050 c3        1 MOL     -0.088099
    123 C41        -4.4130    3.8770   -0.3370 c         1 MOL      0.568878
    124 O16        -4.6020    2.8840    0.4650 o         1 MOL     -0.514268
    125 C42        -2.9150    4.1900   -2.3650 c3        1 MOL      0.063141
    126 O17        -2.8490    2.8400   -2.8030 oh        1 MOL     -0.611493
    127 H57        -1.8200    2.5390   -0.4030 hn        1 MOL      0.167151
    128 H58        -2.7570    5.2700   -0.5350 h1        1 MOL      0.070658
    129 H59        -1.9330    4.6310   -2.5640 h1        1 MOL      0.061777
    130 H60        -3.7440    4.6970   -2.8370 h1        1 MOL      0.061777
    131 H61        -2.1760    2.2980   -2.3900 ho        1 MOL      0.472512
    132 N12        -5.4350    4.6900   -0.6810 n         1 MOL     -0.448425
    133 C43        -6.8010    4.4810   -0.0540 c3        1 MOL      0.077050
    134 C44        -7.5470    3.1940   -0.4780 c         1 MOL      0.536231
    135 O18        -8.0110    2.5120    0.4430 o         1 MOL     -0.538912
    136 C45        -7.6040    5.7570   -0.3500 c3        1 MOL     -0.164107
    137 H62        -5.2470    5.5240   -1.2170 hn        1 MOL      0.281713
    138 H63        -6.6170    4.6040    1.0150 h1        1 MOL      0.107296
    139 H64        -8.0830    5.6140   -1.3280 hc        1 MOL      0.054617
    140 H65        -8.4340    5.8490    0.3510 hc        1 MOL      0.054617
    141 H66        -7.0850    6.7070   -0.4280 hc        1 MOL      0.054617
    142 N13        -7.4300    2.7350   -1.7000 n         1 MOL     -0.445578
    143 C46        -7.8270    1.4040   -2.0550 c3        1 MOL      0.175937
    144 C47        -6.9400    0.2230   -1.4540 c         1 MOL      0.215221
    145 O19        -7.4100   -0.9800   -1.5290 o         1 MOL     -0.528180
    146 C48        -7.7620    1.2690   -3.6200 c3        1 MOL     -0.470748
    147 H67        -7.0540    3.3580   -2.4050 hn        1 MOL      0.286415
    148 H68        -8.8160    1.2420   -1.6280 h1        1 MOL      0.112034
    149 H69        -8.6990    1.6210   -4.0340 hc        1 MOL      0.137368
    150 H70        -6.8800    1.7570   -4.0510 hc        1 MOL      0.137368
    151 H71        -7.7440    0.2420   -4.0060 hc        1 MOL      0.137368
    152 N14        -5.7590    0.4750   -0.8740 n         1 MOL      0.077664
    153 C49        -4.9330   -0.4650   -0.1050 c3        1 MOL     -0.142510
    154 C50        -5.2210   -0.5340    1.4360 c         1 MOL      0.374299
    155 O20        -5.1640   -1.5410    2.1440 o         1 MOL     -0.479801
    156 C51        -3.4350   -0.1490   -0.3250 c3        1 MOL     -0.037940
    157 C52        -2.9940   -0.4400   -1.7930 c3        1 MOL     -0.072323
    158 C53        -1.4870   -0.0580   -1.9570 c         1 MOL      0.737207
    159 O21        -0.6540   -0.9890   -2.2430 o         1 MOL     -0.753370
    160 O22        -1.1600    1.1170   -1.7930 o         1 MOL     -0.753370
    161 H72        -5.4270    1.4280   -0.8030 hn        1 MOL      0.112682
    162 H73        -5.1900   -1.4500   -0.4910 h1        1 MOL      0.100829
    163 H74        -2.8080   -0.6460    0.4140 hc        1 MOL      0.049565
    164 H75        -3.2820    0.9050   -0.0820 hc        1 MOL      0.049565
    165 H76        -3.6480    0.2010   -2.3780 hc        1 MOL     -0.034218
    166 H77        -3.1050   -1.5050   -1.9920 hc        1 MOL     -0.034218
    167 N15        -5.8620    0.5660    1.9680 n         1 MOL     -0.071442
    168 C54        -6.4440    0.5520    3.2700 c3        1 MOL     -0.219826
    169 H78        -5.7650    1.0320    3.9760 h1        1 MOL      0.090889
    170 H79        -7.3900    1.0930    3.2510 h1        1 MOL      0.090889
    171 H80        -6.6200   -0.4790    3.5790 h1        1 MOL      0.090889
    172 H81        -5.8870    1.4330    1.4650 hn        1 MOL      0.158484
    173 Ca1         1.6040   -0.1810   -1.3560 Ca        1 MOL      1.745307
    174 O23         1.3730    2.2650   -2.7420 oh        1 MOL     -0.849262
    175 H82         0.4990    2.6470   -2.7250 ho        1 MOL      0.403075
    176 H83         1.9440    2.9630   -3.0730 ho        1 MOL      0.403075
    177 O24         2.3720   -0.6060   -4.0380 oh        1 MOL     -0.849262
    178 H84         2.8280   -1.4460   -4.0890 ho        1 MOL      0.403075
    179 H85         1.8270   -0.5810   -4.8260 ho        1 MOL      0.403075
@<TRIPOS>BOND
     1    1    2 1   
     2    1    4 1   
     3    1    5 1   
     4    1    6 1   
     5    2    3 2   
     6    2    7 1   
     7    7    8 1   
     8    7   15 1   
     9    8    9 1   
    10    8   11 1   
    11    8   16 1   
    12    9   10 2   
    13    9   19 1   
    14   11   12 1   
    15   11   17 1   
    16   11   18 1   
    17   12   13 1   
    18   12   14 1   
    19   19   20 1   
    20   19   28 1   
    21   20   21 1   
    22   20   23 1   
    23   20   29 1   
    24   21   22 2   
    25   21   41 1   
    26   23   24 1   
    27   23   30 1   
    28   23   31 1   
    29   24   25 1   
    30   24   32 1   
    31   24   33 1   
    32   25   26 1   
    33   25   34 1   
    34   25   35 1   
    35   26   27 1   
    36   26   36 1   
    37   26   37 1   
    38   27   38 1   
    39   27   39 1   
    40   27   40 1   
    41   41   42 1   
    42   41   49 1   
    43   42   43 1   
    44   42   45 1   
    45   42   50 1   
    46   43   44 2   
    47   43   53 1   
    48   45   46 1   
    49   45   51 1   
    50   45   52 1   
    51   46   47 1   
    52   46   48 1   
    53   53   54 1   
    54   53   57 1   
    55   54   55 1   
    56   54   58 1   
    57   54   59 1   
    58   55   56 2   
    59   55   60 1   
    60   60   61 1   
    61   60   68 1   
    62   61   62 1   
    63   61   64 1   
    64   61   69 1   
    65   62   63 2   
    66   62   74 1   
    67   64   65 1   
    68   64   70 1   
    69   64   71 1   
    70   65   66 1   
    71   65   67 2   
    72   66   72 1   
    73   66   73 1   
    74   74   75 1   
    75   74   78 1   
    76   75   76 1   
    77   75   79 1   
    78   75   80 1   
    79   76   77 2   
    80   76   81 1   
    81   81   82 1   
    82   81   93 1   
    83   82   83 1   
    84   82   85 1   
    85   82   94 1   
    86   83   84 2   
    87   83  102 1   
    88   85   86 1   
    89   85   95 1   
    90   85   96 1   
    91   86   87 ar  
    92   86   88 ar  
    93   87   89 ar  
    94   87   97 1   
    95   88   90 ar  
    96   88   98 1   
    97   89   91 ar  
    98   89   99 1   
    99   90   91 ar  
   100   90  100 1   
   101   91   92 1   
   102   92  101 1   
   103  102  103 1   
   104  102  110 1   
   105  103  104 1   
   106  103  106 1   
   107  103  111 1   
   108  104  105 2   
   109  104  121 1   
   110  106  107 1   
   111  106  108 1   
   112  106  112 1   
   113  107  109 1   
   114  107  113 1   
   115  107  114 1   
   116  108  115 1   
   117  108  116 1   
   118  108  117 1   
   119  109  118 1   
   120  109  119 1   
   121  109  120 1   
   122  121  122 1   
   123  121  127 1   
   124  122  123 1   
   125  122  125 1   
   126  122  128 1   
   127  123  124 2   
   128  123  132 1   
   129  125  126 1   
   130  125  129 1   
   131  125  130 1   
   132  126  131 1   
   133  132  133 1   
   134  132  137 1   
   135  133  134 1   
   136  133  136 1   
   137  133  138 1   
   138  134  135 2   
   139  134  142 1   
   140  136  139 1   
   141  136  140 1   
   142  136  141 1   
   143  142  143 1   
   144  142  147 1   
   145  143  144 1   
   146  143  146 1   
   147  143  148 1   
   148  144  145 2   
   149  144  152 1   
   150  146  149 1   
   151  146  150 1   
   152  146  151 1   
   153  152  153 1   
   154  152  161 1   
   155  153  154 1   
   156  153  156 1   
   157  153  162 1   
   158  154  155 2   
   159  154  167 1   
   160  156  157 1   
   161  156  163 1   
   162  156  164 1   
   163  157  158 1   
   164  157  165 1   
   165  157  166 1   
   166  158  159 1   
   167  158  160 1   
   168  167  168 1   
   169  167  172 1   
   170  168  169 1   
   171  168  170 1   
   172  168  171 1   
   173  174  175 1   
   174  174  176 1   
   175  177  178 1   
   176  177  179 1   
@<TRIPOS>SUBSTRUCTURE
     1 MOL         1 TEMP              0 ****  ****    0 ROOT
