@<TRIPOS>MOLECULE
MOL
  189   185     1     0     0
SMALL
resp


@<TRIPOS>ATOM
      1 C1         -0.1680   -3.8460    5.7400 c3        1 MOL     -0.457838
      2 C2          0.5400   -3.4690    4.4240 c         1 MOL      0.767159
      3 O1          0.6690   -2.2980    4.0910 o         1 MOL     -0.604523
      4 H1         -0.2560   -2.9610    6.3720 hc        1 MOL      0.118968
      5 H2         -1.1630   -4.2350    5.5200 hc        1 MOL      0.118968
      6 H3          0.4130   -4.6070    6.2610 hc        1 MOL      0.118968
      7 N1          1.1510   -4.3920    3.7520 n         1 MOL     -0.663573
      8 C3          1.9020   -3.9880    2.5370 c3        1 MOL      0.363131
      9 C4          1.8600   -5.0970    1.4860 c         1 MOL      0.417805
     10 O2          2.3940   -6.1700    1.8190 o         1 MOL     -0.592921
     11 C5          3.2970   -3.4060    2.9390 c3        1 MOL     -0.187118
     12 C6          4.0860   -2.7510    1.8120 c         1 MOL      0.752830
     13 O3          5.2700   -2.2770    1.9190 o         1 MOL     -0.715614
     14 O4          3.4730   -2.5640    0.7170 o         1 MOL     -0.715614
     15 H4          1.1750   -5.3550    4.0520 hn        1 MOL      0.331132
     16 H5          1.3760   -3.1290    2.1230 h1        1 MOL     -0.024464
     17 H6          3.9440   -4.1810    3.3650 hc        1 MOL      0.025212
     18 H7          3.2280   -2.6600    3.7350 hc        1 MOL      0.025212
     19 N2          1.3260   -4.8700    0.3080 n         1 MOL     -0.121525
     20 C7          1.3350   -5.7840   -0.8240 c3        1 MOL     -0.126493
     21 C8          2.3740   -5.3520   -1.9390 c         1 MOL      0.527358
     22 O5          2.5350   -6.1200   -2.9270 o         1 MOL     -0.595616
     23 C9         -0.0880   -6.0010   -1.4130 c3        1 MOL      0.215838
     24 C10        -0.4130   -4.8140   -2.3350 c3        1 MOL     -0.085883
     25 C11        -1.1640   -6.3710   -0.3520 c3        1 MOL     -0.217517
     26 C12        -1.7710   -4.8460   -3.0260 c3        1 MOL     -0.347373
     27 H8          1.0870   -3.9170    0.0640 hn        1 MOL      0.040575
     28 H9          1.6890   -6.7660   -0.5030 h1        1 MOL      0.080294
     29 H10         0.0540   -6.8770   -2.0410 hc        1 MOL     -0.035160
     30 H11         0.3410   -4.6830   -3.1170 hc        1 MOL      0.127345
     31 H12        -0.4180   -3.9080   -1.7420 hc        1 MOL      0.127345
     32 H13        -2.0160   -6.8440   -0.8430 hc        1 MOL      0.042471
     33 H14        -0.7270   -7.1320    0.2980 hc        1 MOL      0.042471
     34 H15        -1.3820   -5.5390    0.3260 hc        1 MOL      0.042471
     35 H16        -2.5200   -4.5550   -2.2850 hc        1 MOL      0.079857
     36 H17        -1.9280   -4.0970   -3.8040 hc        1 MOL      0.079857
     37 H18        -2.0320   -5.8220   -3.4320 hc        1 MOL      0.079857
     38 N3          3.0410   -4.2160   -1.8170 n         1 MOL     -0.420966
     39 C13         3.8670   -3.7570   -2.9860 c3        1 MOL     -0.112343
     40 C14         5.2450   -3.1050   -2.6460 c         1 MOL      0.429276
     41 O6          6.1150   -2.9780   -3.5110 o         1 MOL     -0.517071
     42 C15         2.9440   -2.9050   -3.9010 c3        1 MOL     -0.120117
     43 C16         2.1580   -1.7980   -3.2070 c         1 MOL      0.695810
     44 O7          2.4660   -1.4260   -2.0650 o         1 MOL     -0.726315
     45 O8          1.0680   -1.4420   -3.7380 o         1 MOL     -0.726315
     46 H19         2.8210   -3.5560   -1.0810 hn        1 MOL      0.334255
     47 H20         4.1430   -4.6030   -3.6250 h1        1 MOL      0.138717
     48 H21         2.3380   -3.4570   -4.6170 hc        1 MOL      0.044005
     49 H22         3.6450   -2.4170   -4.5790 hc        1 MOL      0.044005
     50 N4          5.5580   -2.8220   -1.3390 n         1 MOL     -0.076942
     51 C17         6.9670   -2.7130   -0.9330 c3        1 MOL     -0.219561
     52 C18         7.5450   -1.3740   -1.4390 c         1 MOL      0.558681
     53 O9          8.7020   -1.2930   -1.7730 o         1 MOL     -0.604753
     54 H23         4.8730   -2.8640   -0.6040 hn        1 MOL      0.121385
     55 H24         7.4980   -3.5240   -1.4350 h1        1 MOL      0.102714
     56 H25         7.1320   -2.9200    0.1310 h1        1 MOL      0.102714
     57 N5          6.8030   -0.2500   -1.3510 n         1 MOL     -0.326497
     58 C19         7.0440    1.0340   -1.9880 c3        1 MOL      0.141687
     59 C20         7.1850    2.1480   -0.9060 c         1 MOL      0.344505
     60 O10         7.1320    3.3600   -1.1920 o         1 MOL     -0.540611
     61 C21         5.9670    1.4640   -2.9970 c3        1 MOL     -0.163879
     62 C22         4.5430    1.3750   -2.4600 c         1 MOL      0.800676
     63 O11         4.3990    0.7750   -1.3530 o         1 MOL     -0.685354
     64 O12         3.6230    1.8170   -3.0940 o         1 MOL     -0.685354
     65 H26         5.8180   -0.4350   -1.2450 hn        1 MOL      0.143665
     66 H27         7.9460    1.0280   -2.5940 h1        1 MOL      0.061681
     67 H28         6.0540    0.7440   -3.8100 hc        1 MOL      0.028256
     68 H29         6.0580    2.4780   -3.4050 hc        1 MOL      0.028256
     69 N6          7.1990    1.7880    0.3330 n         1 MOL     -0.261404
     70 C23         7.3260    2.8120    1.4370 c3        1 MOL     -0.367514
     71 C24         6.1010    3.6830    1.8720 c         1 MOL      0.585123
     72 O13         6.2620    4.6440    2.6030 o         1 MOL     -0.586845
     73 H30         7.0400    0.8440    0.6330 hn        1 MOL      0.280385
     74 H31         8.0970    3.4950    1.0810 h1        1 MOL      0.156007
     75 H32         7.5590    2.1770    2.2910 h1        1 MOL      0.156007
     76 N7          4.9410    3.4170    1.2890 n         1 MOL     -0.307642
     77 C25         3.6970    4.2890    1.4220 c3        1 MOL     -0.145877
     78 C26         2.5070    3.3680    1.5150 c         1 MOL      0.696559
     79 O14         2.5380    2.3490    0.8450 o         1 MOL     -0.501010
     80 C27         3.4540    5.3190    0.2050 c3        1 MOL      0.133287
     81 C28         4.7710    5.9820   -0.3280 c3        1 MOL     -0.324207
     82 C29         4.6240    7.2080   -1.1970 c         1 MOL      0.710139
     83 N8          5.6030    7.6460   -1.8950 n         1 MOL     -0.760116
     84 O15         3.6010    7.8060   -1.2810 o         1 MOL     -0.602344
     85 H33         4.8500    2.5540    0.7660 hn        1 MOL      0.269821
     86 H34         3.8280    4.9730    2.2670 h1        1 MOL      0.088918
     87 H35         2.7710    6.1150    0.5120 hc        1 MOL      0.013630
     88 H36         2.9840    4.7340   -0.5850 hc        1 MOL      0.013630
     89 H37         5.3170    5.2610   -0.9440 hc        1 MOL      0.110274
     90 H38         5.3300    6.2920    0.5570 hc        1 MOL      0.110274
     91 H39         6.4050    7.0230   -1.8820 hn        1 MOL      0.341106
     92 H40         5.4880    8.5910   -2.2320 hn        1 MOL      0.341106
     93 N9          1.4880    3.7070    2.3200 n         1 MOL     -0.769200
     94 C30         0.2700    2.9370    2.3140 c3        1 MOL      0.016245
     95 C31        -0.7650    3.4090    1.2980 c         1 MOL      0.628796
     96 O16        -1.0550    4.5930    1.2180 o         1 MOL     -0.592023
     97 C32        -0.2780    2.8230    3.7180 c3        1 MOL      0.515504
     98 C33        -1.1000    4.0090    4.2480 c3        1 MOL     -0.425515
     99 C34        -1.0980    1.5330    3.8630 c3        1 MOL     -0.425515
    100 H41         1.3460    4.6940    2.5000 hn        1 MOL      0.363832
    101 H42         0.5620    1.9170    2.0810 h1        1 MOL      0.130217
    102 H43         0.5240    2.8250    4.4540 hc        1 MOL     -0.061731
    103 H44        -1.8760    4.2920    3.5300 hc        1 MOL      0.076195
    104 H45        -1.4900    3.7410    5.2230 hc        1 MOL      0.076195
    105 H46        -0.3520    4.7970    4.3560 hc        1 MOL      0.076195
    106 H47        -0.3870    0.8040    3.4610 hc        1 MOL      0.076195
    107 H48        -1.2680    1.1930    4.8880 hc        1 MOL      0.076195
    108 H49        -1.9920    1.7030    3.2600 hc        1 MOL      0.076195
    109 N10        -1.3160    2.4580    0.5530 n         1 MOL     -0.343135
    110 C35        -2.5510    2.5840   -0.2530 c3        1 MOL      0.112207
    111 C36        -3.8210    2.4980    0.6420 c         1 MOL      0.245012
    112 O17        -3.9030    1.7170    1.5700 o         1 MOL     -0.226395
    113 C37        -2.5400    1.4220   -1.3250 c3        1 MOL     -0.414480
    114 C38        -3.5960    1.6630   -2.4090 c         1 MOL      0.899579
    115 N11        -3.4700    2.6420   -3.2940 n         1 MOL     -0.934775
    116 O18        -4.4560    0.8690   -2.7140 o         1 MOL     -0.590833
    117 H50        -1.0560    1.5040    0.7480 hn        1 MOL      0.010716
    118 H51        -2.5510    3.6090   -0.6100 h1        1 MOL      0.081287
    119 H52        -2.7040    0.4840   -0.8010 hc        1 MOL      0.174927
    120 H53        -1.5350    1.3680   -1.7530 hc        1 MOL      0.174927
    121 H54        -2.7060    3.2970   -3.2630 hn        1 MOL      0.374953
    122 H55        -4.0350    2.5110   -4.1270 hn        1 MOL      0.374953
    123 N12        -4.8850    3.1970    0.1590 n         1 MOL     -0.243589
    124 C39        -6.2740    3.0320    0.7460 c3        1 MOL      0.011705
    125 C40        -6.7120    1.5270    0.8440 c         1 MOL      0.406773
    126 O19        -7.2740    1.0890    1.8380 o         1 MOL     -0.538331
    127 C41        -7.2030    3.8740   -0.1420 c3        1 MOL     -0.005754
    128 C42        -7.3910    3.4530   -1.5830 ca        1 MOL      0.161064
    129 C43        -8.5110    2.6490   -1.8560 ca        1 MOL     -0.309115
    130 C44        -6.5520    3.8730   -2.6230 ca        1 MOL     -0.309115
    131 C45        -8.7430    2.1300   -3.1730 ca        1 MOL     -0.211801
    132 C46        -6.7800    3.3720   -3.9270 ca        1 MOL     -0.211801
    133 C47        -7.8350    2.4850   -4.1420 ca        1 MOL      0.265028
    134 O20        -7.9700    1.8670   -5.3450 oh        1 MOL     -0.439673
    135 H56        -4.7600    3.7130   -0.7010 hn        1 MOL      0.116507
    136 H57        -6.3600    3.5340    1.7050 h1        1 MOL      0.079881
    137 H58        -7.0520    4.9530   -0.1760 hc        1 MOL      0.013576
    138 H59        -8.1560    3.8090    0.3850 hc        1 MOL      0.013576
    139 H60        -9.2200    2.4420   -1.0710 ha        1 MOL      0.187596
    140 H61        -5.6570    4.4280   -2.4070 ha        1 MOL      0.187596
    141 H62        -9.5960    1.4950   -3.3500 ha        1 MOL      0.168150
    142 H63        -6.1350    3.5720   -4.7720 ha        1 MOL      0.168150
    143 H64        -7.4220    2.1930   -6.0580 ho        1 MOL      0.323164
    144 N13        -6.3020    0.6080   -0.1210 n         1 MOL     -0.089581
    145 C48        -6.6100   -0.8290   -0.1180 c3        1 MOL     -0.190119
    146 C49        -5.8870   -1.7290    0.8900 c         1 MOL      0.532416
    147 O21        -6.3060   -2.7440    1.3990 o         1 MOL     -0.515014
    148 C50        -6.4030   -1.3280   -1.5480 c3        1 MOL     -0.067839
    149 C51        -7.0720   -2.7030   -1.8970 c3        1 MOL     -0.191274
    150 C52        -8.6020   -2.8150   -1.5720 c         1 MOL      0.617511
    151 O22        -9.3750   -1.9360   -2.0060 o         1 MOL     -0.698361
    152 O23        -9.1000   -3.7430   -0.8260 o         1 MOL     -0.698361
    153 H65        -5.8000    0.9670   -0.9280 hn        1 MOL      0.241365
    154 H66        -7.6880   -0.9400    0.0080 h1        1 MOL      0.162178
    155 H67        -5.3270   -1.4200   -1.6580 hc        1 MOL      0.071967
    156 H68        -6.8310   -0.6080   -2.2380 hc        1 MOL      0.071967
    157 H69        -6.5330   -3.4670   -1.3490 hc        1 MOL      0.016891
    158 H70        -6.9190   -2.8850   -2.9550 hc        1 MOL      0.016891
    159 N14        -4.7520   -1.1660    1.3290 n         1 MOL     -0.096771
    160 C53        -4.0170   -1.5670    2.5070 c3        1 MOL     -0.032679
    161 C54        -4.5220   -0.9370    3.7770 c         1 MOL      0.450607
    162 O24        -4.7880   -1.6820    4.7440 o         1 MOL     -0.587902
    163 C55        -2.5170   -1.3250    2.3440 c3        1 MOL     -0.049271
    164 C56        -1.8230   -2.1740    1.1880 c3        1 MOL     -0.079516
    165 C57        -0.4830   -1.5320    0.7280 c         1 MOL      0.641963
    166 O25         0.3120   -2.2240    0.1190 o         1 MOL     -0.617708
    167 O26        -0.1800   -0.3160    0.8420 o         1 MOL     -0.617708
    168 H71        -4.4880   -0.3530    0.7940 hn        1 MOL     -0.046302
    169 H72        -4.2120   -2.6180    2.7200 h1        1 MOL      0.051057
    170 H73        -2.0250   -1.5890    3.2770 hc        1 MOL      0.050673
    171 H74        -2.4210   -0.2560    2.1470 hc        1 MOL      0.050673
    172 H75        -2.5060   -2.4580    0.3870 hc        1 MOL      0.030958
    173 H76        -1.5780   -3.1490    1.6220 hc        1 MOL      0.030958
    174 N15        -4.6160    0.3620    3.8670 n         1 MOL     -0.047577
    175 C58        -4.7980    1.2090    5.0260 c3        1 MOL     -0.135716
    176 H77        -3.8340    1.6110    5.3370 h1        1 MOL      0.056591
    177 H78        -5.4700    2.0300    4.7750 h1        1 MOL      0.056591
    178 H79        -5.2270    0.6250    5.8410 h1        1 MOL      0.056591
    179 H80        -4.4220    0.8460    3.0060 hn        1 MOL      0.056387
    180 Ca1         2.3690   -0.2490    0.1060 Ca        1 MOL      1.678419
    181 O27         2.0980   -0.4170    2.7120 oh        1 MOL     -0.865810
    182 H81         1.5540   -1.1310    3.0400 ho        1 MOL      0.404793
    183 H82         2.5100   -0.0520    3.5050 ho        1 MOL      0.404793
    184 O28         1.2530    1.2290   -1.8730 oh        1 MOL     -0.865810
    185 H83         2.1000    1.4800   -2.2360 ho        1 MOL      0.404793
    186 H84         0.8940    0.6100   -2.5030 ho        1 MOL      0.404793
    187 O29         4.6460    0.2850    1.8240 oh        1 MOL     -0.865810
    188 H85         5.1330   -0.5300    1.7180 ho        1 MOL      0.404793
    189 H86         4.0400    0.1070    2.5480 ho        1 MOL      0.404793
@<TRIPOS>BOND
     1    1    2 1   
     2    1    4 1   
     3    1    5 1   
     4    1    6 1   
     5    2    3 2   
     6    2    7 1   
     7    7    8 1   
     8    7   15 1   
     9    8    9 1   
    10    8   11 1   
    11    8   16 1   
    12    9   10 2   
    13    9   19 1   
    14   11   12 1   
    15   11   17 1   
    16   11   18 1   
    17   12   13 1   
    18   12   14 1   
    19   19   20 1   
    20   19   27 1   
    21   20   21 1   
    22   20   23 1   
    23   20   28 1   
    24   21   22 2   
    25   21   38 1   
    26   23   24 1   
    27   23   25 1   
    28   23   29 1   
    29   24   26 1   
    30   24   30 1   
    31   24   31 1   
    32   25   32 1   
    33   25   33 1   
    34   25   34 1   
    35   26   35 1   
    36   26   36 1   
    37   26   37 1   
    38   38   39 1   
    39   38   46 1   
    40   39   40 1   
    41   39   42 1   
    42   39   47 1   
    43   40   41 2   
    44   40   50 1   
    45   42   43 1   
    46   42   48 1   
    47   42   49 1   
    48   43   44 1   
    49   43   45 1   
    50   50   51 1   
    51   50   54 1   
    52   51   52 1   
    53   51   55 1   
    54   51   56 1   
    55   52   53 2   
    56   52   57 1   
    57   57   58 1   
    58   57   65 1   
    59   58   59 1   
    60   58   61 1   
    61   58   66 1   
    62   59   60 2   
    63   59   69 1   
    64   61   62 1   
    65   61   67 1   
    66   61   68 1   
    67   62   63 1   
    68   62   64 1   
    69   69   70 1   
    70   69   73 1   
    71   70   71 1   
    72   70   74 1   
    73   70   75 1   
    74   71   72 2   
    75   71   76 1   
    76   76   77 1   
    77   76   85 1   
    78   77   78 1   
    79   77   80 1   
    80   77   86 1   
    81   78   79 2   
    82   78   93 1   
    83   80   81 1   
    84   80   87 1   
    85   80   88 1   
    86   81   82 1   
    87   81   89 1   
    88   81   90 1   
    89   82   83 1   
    90   82   84 2   
    91   83   91 1   
    92   83   92 1   
    93   93   94 1   
    94   93  100 1   
    95   94   95 1   
    96   94   97 1   
    97   94  101 1   
    98   95   96 2   
    99   95  109 1   
   100   97   98 1   
   101   97   99 1   
   102   97  102 1   
   103   98  103 1   
   104   98  104 1   
   105   98  105 1   
   106   99  106 1   
   107   99  107 1   
   108   99  108 1   
   109  109  110 1   
   110  109  117 1   
   111  110  111 1   
   112  110  113 1   
   113  110  118 1   
   114  111  112 2   
   115  111  123 1   
   116  113  114 1   
   117  113  119 1   
   118  113  120 1   
   119  114  115 1   
   120  114  116 2   
   121  115  121 1   
   122  115  122 1   
   123  123  124 1   
   124  123  135 1   
   125  124  125 1   
   126  124  127 1   
   127  124  136 1   
   128  125  126 2   
   129  125  144 1   
   130  127  128 1   
   131  127  137 1   
   132  127  138 1   
   133  128  129 ar  
   134  128  130 ar  
   135  129  131 ar  
   136  129  139 1   
   137  130  132 ar  
   138  130  140 1   
   139  131  133 ar  
   140  131  141 1   
   141  132  133 ar  
   142  132  142 1   
   143  133  134 1   
   144  134  143 1   
   145  144  145 1   
   146  144  153 1   
   147  145  146 1   
   148  145  148 1   
   149  145  154 1   
   150  146  147 2   
   151  146  159 1   
   152  148  149 1   
   153  148  155 1   
   154  148  156 1   
   155  149  150 1   
   156  149  157 1   
   157  149  158 1   
   158  150  151 1   
   159  150  152 1   
   160  159  160 1   
   161  159  168 1   
   162  160  161 1   
   163  160  163 1   
   164  160  169 1   
   165  161  162 2   
   166  161  174 1   
   167  163  164 1   
   168  163  170 1   
   169  163  171 1   
   170  164  165 1   
   171  164  172 1   
   172  164  173 1   
   173  165  166 1   
   174  165  167 1   
   175  174  175 1   
   176  174  179 1   
   177  175  176 1   
   178  175  177 1   
   179  175  178 1   
   180  181  182 1   
   181  181  183 1   
   182  184  185 1   
   183  184  186 1   
   184  187  188 1   
   185  187  189 1   
@<TRIPOS>SUBSTRUCTURE
     1 MOL         1 TEMP              0 ****  ****    0 ROOT
