@<TRIPOS>MOLECULE
MOL
  185   180     1     0     0
SMALL
resp


@<TRIPOS>ATOM
      1 C1         -0.1650   -4.8840    4.9060 c3        1 MOL     -0.461915
      2 C2          0.1810   -4.1240    3.6100 c         1 MOL      0.689883
      3 O1         -0.7200   -4.1750    2.7230 o         1 MOL     -0.563258
      4 H1         -0.7440   -5.7750    4.6600 hc        1 MOL      0.119506
      5 H2          0.7550   -5.1780    5.4120 hc        1 MOL      0.119506
      6 H3         -0.7520   -4.2400    5.5610 hc        1 MOL      0.119506
      7 N1          1.2620   -3.4210    3.5340 n         1 MOL     -0.530439
      8 C3          1.7010   -2.7180    2.3670 c3        1 MOL      0.149923
      9 C4          2.5260   -3.7120    1.4820 c         1 MOL      0.251710
     10 O2          3.7000   -4.0830    1.8590 o         1 MOL     -0.477651
     11 C5          2.5250   -1.5160    2.8810 c3        1 MOL     -0.461259
     12 C6          3.2130   -0.8360    1.7140 c         1 MOL      0.695082
     13 O3          2.6180   -0.6800    0.5990 o         1 MOL     -0.662155
     14 O4          4.3580   -0.3940    1.7780 o         1 MOL     -0.662155
     15 H4          1.8730   -3.3540    4.3360 hn        1 MOL      0.345479
     16 H5          0.9390   -2.3750    1.6780 h1        1 MOL     -0.005424
     17 H6          3.3150   -1.7920    3.5780 hc        1 MOL      0.156177
     18 H7          1.7070   -0.8820    3.2380 hc        1 MOL      0.156177
     19 N2          1.8330   -4.2130    0.4250 n         1 MOL      0.091304
     20 C7          2.1940   -5.5210   -0.1240 c3        1 MOL     -0.152108
     21 C8          3.3840   -5.5550   -1.1570 c         1 MOL      0.514290
     22 O5          4.0510   -6.5520   -1.2070 o         1 MOL     -0.510946
     23 C9          0.9060   -6.1680   -0.7470 c3        1 MOL     -0.114772
     24 C10        -0.3570   -6.2880    0.1020 c3        1 MOL     -0.133414
     25 C11        -0.0170   -7.2680    1.2410 c3        1 MOL      0.059952
     26 C12        -1.2640   -7.4550    2.1380 c3        1 MOL      0.052897
     27 N3         -0.9910   -8.4460    3.1640 n4        1 MOL     -0.535756
     28 H8          0.9270   -3.8300    0.2060 hn        1 MOL      0.211594
     29 H9          2.5440   -6.0680    0.7550 h1        1 MOL      0.065731
     30 H10         1.1890   -7.1430   -1.1230 hc        1 MOL      0.056874
     31 H11         0.7700   -5.5230   -1.6120 hc        1 MOL      0.056874
     32 H12        -1.1400   -6.7600   -0.5010 hc        1 MOL      0.045587
     33 H13        -0.7000   -5.3310    0.4940 hc        1 MOL      0.045587
     34 H14         0.7510   -6.8220    1.8760 hc        1 MOL      0.030157
     35 H15         0.2520   -8.2210    0.7770 hc        1 MOL      0.030157
     36 H16        -2.0460   -7.7840    1.4550 hx        1 MOL      0.088090
     37 H17        -1.6050   -6.4980    2.5400 hx        1 MOL      0.088090
     38 H18        -1.8460   -8.6450    3.6810 hn        1 MOL      0.364287
     39 H19        -0.8190   -9.3310    2.6930 hn        1 MOL      0.364287
     40 H20        -0.2190   -8.2030    3.7770 hn        1 MOL      0.364287
     41 N4          3.5390   -4.4370   -1.9530 n         1 MOL     -0.347500
     42 C13         4.6710   -4.1340   -2.7240 c3        1 MOL      0.067979
     43 C14         5.8010   -3.4060   -1.9090 c         1 MOL      0.386131
     44 O6          7.0250   -3.4300   -2.2810 o         1 MOL     -0.521701
     45 C15         4.2410   -3.3330   -3.9140 c3        1 MOL     -0.327955
     46 C16         3.6630   -1.9100   -3.5890 c         1 MOL      0.719862
     47 O7          3.0430   -1.7330   -2.4840 o         1 MOL     -0.668471
     48 O8          3.6780   -1.0260   -4.4710 o         1 MOL     -0.668471
     49 H21         2.8230   -3.7390   -1.7990 hn        1 MOL      0.180673
     50 H22         5.1010   -5.0710   -3.0770 h1        1 MOL      0.092476
     51 H23         3.6730   -3.8740   -4.6650 hc        1 MOL      0.105378
     52 H24         5.1550   -3.1380   -4.4780 hc        1 MOL      0.105378
     53 N5          5.3660   -2.7730   -0.8030 n         1 MOL     -0.040035
     54 C17         6.2800   -2.1420    0.0980 c3        1 MOL     -0.132756
     55 C18         6.6750   -0.7680   -0.3630 c         1 MOL      0.508739
     56 O9          7.8880   -0.4890   -0.2670 o         1 MOL     -0.559362
     57 H25         4.3530   -2.6840   -0.7490 hn        1 MOL      0.000301
     58 H26         7.1620   -2.7580    0.2870 h1        1 MOL      0.108532
     59 H27         5.7510   -1.9980    1.0500 h1        1 MOL      0.108532
     60 N6          5.7700    0.0700   -0.8800 n         1 MOL     -0.161182
     61 C19         6.0670    1.4490   -1.2070 c3        1 MOL     -0.058021
     62 C20         5.9890    2.4420   -0.0200 c         1 MOL      0.200539
     63 O10         6.2610    3.6780   -0.1540 o         1 MOL     -0.445641
     64 C21         5.2150    1.9590   -2.3980 c3        1 MOL     -0.060774
     65 C22         3.9110    2.5020   -1.9110 c         1 MOL      0.336414
     66 N7          3.4600    3.6110   -2.3800 n         1 MOL     -0.547752
     67 O11         3.1900    1.8210   -1.2440 o         1 MOL     -0.590854
     68 H28         4.8200   -0.2490   -0.9570 hn        1 MOL      0.119957
     69 H29         7.1070    1.5380   -1.5250 h1        1 MOL      0.129757
     70 H30         5.0650    1.1010   -3.0510 hc        1 MOL      0.070084
     71 H31         5.7140    2.6800   -3.0470 hc        1 MOL      0.070084
     72 H32         4.0810    4.1090   -3.0070 hn        1 MOL      0.332559
     73 H33         2.5420    3.9520   -2.1140 hn        1 MOL      0.332559
     74 N8          5.5840    2.0280    1.1750 n         1 MOL      0.005661
     75 C23         5.3830    2.9280    2.3250 c3        1 MOL     -0.369939
     76 C24         3.9950    3.5160    2.3590 c         1 MOL      0.758635
     77 O12         3.7870    4.3280    3.3380 o         1 MOL     -0.596881
     78 H34         5.5000    1.0320    1.3080 hn        1 MOL      0.211965
     79 H35         6.1240    3.7290    2.3410 h1        1 MOL      0.151047
     80 H36         5.5060    2.2860    3.2010 h1        1 MOL      0.151047
     81 N9          3.0440    3.1720    1.4960 n         1 MOL     -0.724619
     82 C25         1.6640    3.7070    1.4980 c3        1 MOL      0.616836
     83 C26         0.5400    2.6620    1.2550 c         1 MOL      0.076010
     84 O13         0.7540    1.7230    0.5050 o         1 MOL     -0.439708
     85 C27         1.4880    4.9400    0.5520 c3        1 MOL      0.009671
     86 C28         2.3750    6.0710    0.8560 ca        1 MOL     -0.001825
     87 C29         3.6590    6.0110    0.2650 ca        1 MOL     -0.141183
     88 C30         2.0180    7.2220    1.5440 ca        1 MOL     -0.141183
     89 C31         4.5970    7.0090    0.4100 ca        1 MOL     -0.277701
     90 C32         2.9250    8.3390    1.6230 ca        1 MOL     -0.277701
     91 C33         4.2410    8.2240    1.0780 ca        1 MOL      0.356902
     92 O14         5.1780    9.1580    1.2530 oh        1 MOL     -0.447612
     93 H37         3.2260    2.4190    0.8520 hn        1 MOL      0.397077
     94 H38         1.4630    4.1730    2.4640 h1        1 MOL     -0.073217
     95 H39         0.4360    5.2150    0.5430 hc        1 MOL     -0.024529
     96 H40         1.7860    4.4780   -0.3950 hc        1 MOL     -0.024529
     97 H41         3.9910    5.0900   -0.2070 ha        1 MOL      0.117171
     98 H42         1.0670    7.2990    2.0540 ha        1 MOL      0.117171
     99 H43         5.5860    6.8760    0.0050 ha        1 MOL      0.142755
    100 H44         2.6080    9.2010    2.1830 ha        1 MOL      0.142755
    101 H45         4.8610    9.8480    1.8320 ho        1 MOL      0.344723
    102 N10        -0.6350    2.8300    1.7530 n         1 MOL     -0.211040
    103 C34        -1.8090    1.9800    1.4060 c3        1 MOL     -0.389513
    104 C35        -3.0660    2.8460    0.9830 c         1 MOL      0.668032
    105 O15        -3.4020    3.8630    1.5770 o         1 MOL     -0.558863
    106 C36        -2.1240    0.7790    2.4320 c3        1 MOL      0.093079
    107 C37        -2.3630    1.3090    3.8770 c3        1 MOL     -0.077237
    108 C38        -0.8540   -0.1670    2.5000 c3        1 MOL     -0.185776
    109 C39        -2.5820    0.1840    4.9220 c3        1 MOL     -0.147698
    110 H46        -0.6980    3.5760    2.4320 hn        1 MOL      0.276484
    111 H47        -1.6210    1.3240    0.5620 h1        1 MOL      0.226720
    112 H48        -3.0420    0.2850    2.1180 hc        1 MOL      0.049004
    113 H49        -3.3450    1.7790    3.8500 hc        1 MOL      0.046017
    114 H50        -1.5670    1.9400    4.2880 hc        1 MOL      0.046017
    115 H51        -1.1050   -1.1660    2.8660 hc        1 MOL      0.081475
    116 H52        -0.5050   -0.2580    1.4800 hc        1 MOL      0.081475
    117 H53        -0.1520    0.4050    3.1140 hc        1 MOL      0.081475
    118 H54        -1.6540   -0.3610    5.0860 hc        1 MOL      0.040581
    119 H55        -2.8660    0.5930    5.8870 hc        1 MOL      0.040581
    120 H56        -3.3350   -0.4910    4.5050 hc        1 MOL      0.040581
    121 N11        -3.6910    2.5110   -0.1820 n         1 MOL     -0.159693
    122 C40        -4.8860    3.2220   -0.6950 c3        1 MOL     -0.152275
    123 C41        -6.2050    2.6620   -0.1240 c         1 MOL      0.452625
    124 O16        -6.2020    1.5630    0.4610 o         1 MOL     -0.427210
    125 C42        -4.9740    3.0730   -2.2370 c3        1 MOL      0.048072
    126 O17        -5.0870    1.7510   -2.6170 oh        1 MOL     -0.548272
    127 H57        -3.4930    1.6290   -0.6170 hn        1 MOL     -0.046158
    128 H58        -4.8100    4.2950   -0.5440 h1        1 MOL      0.098372
    129 H59        -4.1320    3.5760   -2.7190 h1        1 MOL      0.056297
    130 H60        -5.9010    3.5580   -2.5420 h1        1 MOL      0.056297
    131 H61        -4.1690    1.4840   -2.7620 ho        1 MOL      0.439778
    132 N12        -7.2880    3.3470   -0.4590 n         1 MOL     -0.298593
    133 C43        -8.6760    2.9030   -0.2020 c3        1 MOL     -0.024318
    134 C44        -8.9790    1.4370   -0.5600 c         1 MOL      0.520013
    135 O18        -9.6210    0.6710    0.1670 o         1 MOL     -0.523778
    136 C45        -9.7040    3.7970   -0.9250 c3        1 MOL     -0.306837
    137 H62        -7.0870    4.2320   -0.8900 hn        1 MOL      0.267527
    138 H63        -8.6870    3.0640    0.8790 h1        1 MOL      0.107172
    139 H64        -9.4780    4.8300   -0.6720 hc        1 MOL      0.103036
    140 H65        -9.7420    3.7380   -2.0190 hc        1 MOL      0.103036
    141 H66       -10.7030    3.5140   -0.5630 hc        1 MOL      0.103036
    142 N13        -8.4470    0.9450   -1.6770 n         1 MOL     -0.372611
    143 C46        -8.5460   -0.4520   -2.1800 c3        1 MOL      0.079268
    144 C47        -7.5070   -1.4780   -1.5300 c         1 MOL      0.417785
    145 O19        -7.8880   -2.6570   -1.3620 o         1 MOL     -0.536316
    146 C48        -8.4060   -0.3980   -3.6980 c3        1 MOL     -0.252903
    147 H67        -7.8930    1.4830   -2.3150 hn        1 MOL      0.297747
    148 H68        -9.5150   -0.8200   -1.8730 h1        1 MOL      0.089356
    149 H69        -8.9660    0.3630   -4.2480 hc        1 MOL      0.073450
    150 H70        -7.3700   -0.1410   -3.8940 hc        1 MOL      0.073450
    151 H71        -8.5040   -1.4200   -4.0470 hc        1 MOL      0.073450
    152 N14        -6.3490   -0.9990   -1.2450 n         1 MOL     -0.053716
    153 C49        -5.3830   -1.8160   -0.4940 c3        1 MOL     -0.284490
    154 C50        -5.7830   -1.9670    1.0550 c         1 MOL      0.544953
    155 O20        -5.3540   -2.8760    1.7000 o         1 MOL     -0.558591
    156 C51        -4.0180   -1.0780   -0.5450 c3        1 MOL      0.382048
    157 C52        -3.2900   -1.1700   -1.8940 c3        1 MOL     -0.189283
    158 C53        -2.2670   -0.0670   -1.8590 c         1 MOL      0.662219
    159 O21        -1.2230   -0.3460   -1.2040 o         1 MOL     -0.637548
    160 O22        -2.5600    1.0130   -2.4090 o         1 MOL     -0.637548
    161 H72        -6.1970   -0.0160   -1.3970 hn        1 MOL      0.076392
    162 H73        -5.2990   -2.8140   -0.9260 h1        1 MOL      0.133606
    163 H74        -3.4670   -1.4590    0.3120 hc        1 MOL     -0.094158
    164 H75        -4.2550   -0.0330   -0.3050 hc        1 MOL     -0.094158
    165 H76        -3.9480   -1.0200   -2.7490 hc        1 MOL      0.007471
    166 H77        -2.7320   -2.1090   -1.7990 hc        1 MOL      0.007471
    167 N15        -6.6280   -1.0750    1.5790 n         1 MOL     -0.138017
    168 C54        -7.4010   -1.2940    2.7810 c3        1 MOL     -0.266654
    169 H78        -7.8220   -2.2990    2.7630 h1        1 MOL      0.109665
    170 H79        -6.7570   -1.1850    3.6530 h1        1 MOL      0.109665
    171 H80        -8.2090   -0.5640    2.8310 h1        1 MOL      0.109665
    172 H81        -6.8990   -0.3390    0.9430 hn        1 MOL      0.160116
    173 Ca1         1.2500    0.1670   -1.6240 Ca        1 MOL      1.761185
    174 O23         0.4870   -2.2640   -0.7850 oh        1 MOL     -0.839480
    175 H82        -0.2380   -1.7620   -0.4190 ho        1 MOL      0.408679
    176 H83         0.1530   -2.6240   -1.6030 ho        1 MOL      0.408679
    177 O24        -0.1860    2.6680   -2.0920 oh        1 MOL     -0.839480
    178 H84        -0.3160    3.5980   -1.9270 ho        1 MOL      0.408679
    179 H85        -1.0640    2.2940   -2.0880 ho        1 MOL      0.408679
    180 O25         0.2010   -1.4620   -3.6750 oh        1 MOL     -0.839480
    181 H86        -0.2330   -2.2630   -3.3760 ho        1 MOL      0.408679
    182 H87         0.4030   -1.6400   -4.5880 ho        1 MOL      0.408679
    183 O26         1.9810    1.0420   -4.1850 oh        1 MOL     -0.839480
    184 H88         2.0900    1.5800   -4.9700 ho        1 MOL      0.408679
    185 H89         2.6010    0.3110   -4.3070 ho        1 MOL      0.408679
@<TRIPOS>BOND
     1    1    2 1   
     2    1    4 1   
     3    1    5 1   
     4    1    6 1   
     5    2    3 2   
     6    2    7 1   
     7    7    8 1   
     8    7   15 1   
     9    8    9 1   
    10    8   11 1   
    11    8   16 1   
    12    9   10 2   
    13    9   19 1   
    14   11   12 1   
    15   11   17 1   
    16   11   18 1   
    17   12   13 1   
    18   12   14 1   
    19   19   20 1   
    20   19   28 1   
    21   20   21 1   
    22   20   23 1   
    23   20   29 1   
    24   21   22 2   
    25   21   41 1   
    26   23   24 1   
    27   23   30 1   
    28   23   31 1   
    29   24   25 1   
    30   24   32 1   
    31   24   33 1   
    32   25   26 1   
    33   25   34 1   
    34   25   35 1   
    35   26   27 1   
    36   26   36 1   
    37   26   37 1   
    38   27   38 1   
    39   27   39 1   
    40   27   40 1   
    41   41   42 1   
    42   41   49 1   
    43   42   43 1   
    44   42   45 1   
    45   42   50 1   
    46   43   44 2   
    47   43   53 1   
    48   45   46 1   
    49   45   51 1   
    50   45   52 1   
    51   46   47 1   
    52   46   48 1   
    53   53   54 1   
    54   53   57 1   
    55   54   55 1   
    56   54   58 1   
    57   54   59 1   
    58   55   56 2   
    59   55   60 1   
    60   60   61 1   
    61   60   68 1   
    62   61   62 1   
    63   61   64 1   
    64   61   69 1   
    65   62   63 2   
    66   62   74 1   
    67   64   65 1   
    68   64   70 1   
    69   64   71 1   
    70   65   66 1   
    71   65   67 2   
    72   66   72 1   
    73   66   73 1   
    74   74   75 1   
    75   74   78 1   
    76   75   76 1   
    77   75   79 1   
    78   75   80 1   
    79   76   77 2   
    80   76   81 1   
    81   81   82 1   
    82   81   93 1   
    83   82   83 1   
    84   82   85 1   
    85   82   94 1   
    86   83   84 2   
    87   83  102 1   
    88   85   86 1   
    89   85   95 1   
    90   85   96 1   
    91   86   87 ar  
    92   86   88 ar  
    93   87   89 ar  
    94   87   97 1   
    95   88   90 ar  
    96   88   98 1   
    97   89   91 ar  
    98   89   99 1   
    99   90   91 ar  
   100   90  100 1   
   101   91   92 1   
   102   92  101 1   
   103  102  103 1   
   104  102  110 1   
   105  103  104 1   
   106  103  106 1   
   107  103  111 1   
   108  104  105 2   
   109  104  121 1   
   110  106  107 1   
   111  106  108 1   
   112  106  112 1   
   113  107  109 1   
   114  107  113 1   
   115  107  114 1   
   116  108  115 1   
   117  108  116 1   
   118  108  117 1   
   119  109  118 1   
   120  109  119 1   
   121  109  120 1   
   122  121  122 1   
   123  121  127 1   
   124  122  123 1   
   125  122  125 1   
   126  122  128 1   
   127  123  124 2   
   128  123  132 1   
   129  125  126 1   
   130  125  129 1   
   131  125  130 1   
   132  126  131 1   
   133  132  133 1   
   134  132  137 1   
   135  133  134 1   
   136  133  136 1   
   137  133  138 1   
   138  134  135 2   
   139  134  142 1   
   140  136  139 1   
   141  136  140 1   
   142  136  141 1   
   143  142  143 1   
   144  142  147 1   
   145  143  144 1   
   146  143  146 1   
   147  143  148 1   
   148  144  145 2   
   149  144  152 1   
   150  146  149 1   
   151  146  150 1   
   152  146  151 1   
   153  152  153 1   
   154  152  161 1   
   155  153  154 1   
   156  153  156 1   
   157  153  162 1   
   158  154  155 2   
   159  154  167 1   
   160  156  157 1   
   161  156  163 1   
   162  156  164 1   
   163  157  158 1   
   164  157  165 1   
   165  157  166 1   
   166  158  159 1   
   167  158  160 1   
   168  167  168 1   
   169  167  172 1   
   170  168  169 1   
   171  168  170 1   
   172  168  171 1   
   173  174  175 1   
   174  174  176 1   
   175  177  178 1   
   176  177  179 1   
   177  180  181 1   
   178  180  182 1   
   179  183  184 1   
   180  183  185 1   
@<TRIPOS>SUBSTRUCTURE
     1 MOL         1 TEMP              0 ****  ****    0 ROOT
