@<TRIPOS>MOLECULE
MOL
  189   185     1     0     0
SMALL
resp


@<TRIPOS>ATOM
      1 C1          0.3930    1.8970    5.7460 c3        1 MOL     -0.251639
      2 C2         -0.0410    1.8980    4.3260 c         1 MOL      0.646726
      3 O1          0.7510    2.1920    3.4110 o         1 MOL     -0.604062
      4 H1          0.7260    2.8970    6.0240 hc        1 MOL      0.068293
      5 H2         -0.4420    1.6030    6.3810 hc        1 MOL      0.068293
      6 H3          1.2140    1.1930    5.8750 hc        1 MOL      0.068293
      7 N1         -1.3160    1.5110    4.0660 n         1 MOL     -0.459013
      8 C3         -1.8960    1.5080    2.7240 c3        1 MOL      0.009799
      9 C4         -2.3420    2.8430    2.2960 c         1 MOL      0.446259
     10 O2         -3.3760    3.3510    2.7250 o         1 MOL     -0.518165
     11 C5         -2.9560    0.3990    2.6390 c3        1 MOL     -0.349016
     12 C6         -3.7350    0.3370    1.3340 c         1 MOL      0.935989
     13 O3         -3.2980    0.8070    0.2950 o         1 MOL     -0.695978
     14 O4         -4.8870   -0.1420    1.4320 o         1 MOL     -0.695978
     15 H4         -1.9820    1.1420    4.7280 hn        1 MOL      0.315635
     16 H5         -1.0670    1.2170    2.0790 h1        1 MOL      0.088919
     17 H6         -3.6750    0.3840    3.4540 hc        1 MOL      0.083146
     18 H7         -2.3980   -0.5290    2.7410 hc        1 MOL      0.083146
     19 N2         -1.5730    3.5150    1.4680 n         1 MOL     -0.251946
     20 C7         -1.6780    4.9000    1.0280 c3        1 MOL     -0.127335
     21 C8         -2.8850    5.1000    0.0950 c         1 MOL      0.469841
     22 O5         -3.4230    6.1570   -0.0280 o         1 MOL     -0.530761
     23 C9         -0.3220    5.4420    0.4930 c3        1 MOL     -0.168654
     24 C10         0.4660    5.9800    1.7220 c3        1 MOL     -0.010592
     25 C11         1.5960    6.7650    1.1680 c3        1 MOL     -0.122281
     26 C12         2.5230    7.2300    2.3880 c3        1 MOL     -0.054119
     27 N3          1.8040    8.0460    3.4240 n4        1 MOL     -0.345291
     28 H8         -0.8560    2.9280    1.0550 hn        1 MOL      0.243521
     29 H9         -1.9110    5.5360    1.8890 h1        1 MOL      0.090266
     30 H10        -0.5000    6.2540   -0.2150 hc        1 MOL      0.109828
     31 H11         0.2210    4.7630   -0.1580 hc        1 MOL      0.109828
     32 H12         0.8820    5.1040    2.2060 hc        1 MOL      0.068780
     33 H13        -0.0750    6.4910    2.5170 hc        1 MOL      0.068780
     34 H14         1.2720    7.7030    0.7100 hc        1 MOL      0.069138
     35 H15         2.1740    6.1300    0.5050 hc        1 MOL      0.069138
     36 H16         3.4140    7.7810    2.1040 hx        1 MOL      0.122715
     37 H17         2.8690    6.3260    2.9030 hx        1 MOL      0.122715
     38 H18         1.6860    8.9670    3.0170 hn        1 MOL      0.319144
     39 H19         0.8470    7.8090    3.6440 hn        1 MOL      0.319144
     40 H20         2.3480    8.1480    4.2670 hn        1 MOL      0.319144
     41 N4         -3.1670    4.0820   -0.8470 n         1 MOL     -0.209675
     42 C13        -4.2140    4.1510   -1.8880 c3        1 MOL     -0.020976
     43 C14        -5.4700    3.2560   -1.5870 c         1 MOL      0.486990
     44 O6         -6.3960    3.2040   -2.3740 o         1 MOL     -0.504350
     45 C15        -3.5990    3.9710   -3.2970 c3        1 MOL     -0.241245
     46 C16        -2.7650    2.7160   -3.6170 c         1 MOL      0.850110
     47 O7         -1.8420    2.8160   -4.4510 o         1 MOL     -0.736908
     48 O8         -2.9800    1.6820   -2.9900 o         1 MOL     -0.736908
     49 H21        -2.5930    3.2460   -0.8900 hn        1 MOL      0.168856
     50 H22        -4.6720    5.1390   -1.7920 h1        1 MOL      0.104681
     51 H23        -2.8840    4.7490   -3.5560 hc        1 MOL      0.045061
     52 H24        -4.4710    4.0250   -3.9480 hc        1 MOL      0.045061
     53 N5         -5.5660    2.5060   -0.4310 n         1 MOL     -0.350501
     54 C17        -6.8260    2.2320    0.2190 c3        1 MOL     -0.029438
     55 C18        -7.4610    1.0060   -0.2330 c         1 MOL      0.494231
     56 O9         -8.7170    0.8400   -0.0830 o         1 MOL     -0.597686
     57 H25        -4.7040    2.3310    0.0630 hn        1 MOL      0.218127
     58 H26        -7.5140    3.0550    0.0380 h1        1 MOL      0.081037
     59 H27        -6.7490    2.2650    1.3090 h1        1 MOL      0.081037
     60 N6         -6.6830    0.0820   -0.8310 n         1 MOL     -0.086521
     61 C19        -7.0850   -1.1770   -1.6190 c3        1 MOL     -0.091647
     62 C20        -7.0340   -2.3780   -0.7150 c         1 MOL      0.363300
     63 O10        -7.5290   -3.5510   -0.9970 o         1 MOL     -0.542498
     64 C21        -6.1330   -1.4650   -2.7720 c3        1 MOL     -0.240892
     65 C22        -4.6660   -1.5750   -2.5490 c         1 MOL      0.758681
     66 O11        -4.1980   -1.5270   -1.3730 o         1 MOL     -0.694949
     67 O12        -3.9470   -1.6660   -3.5030 o         1 MOL     -0.694949
     68 H28        -5.7610    0.1440   -0.4220 hn        1 MOL     -0.040732
     69 H29        -8.0880   -1.1810   -2.0360 h1        1 MOL      0.155729
     70 H30        -6.3220   -0.7070   -3.5290 hc        1 MOL      0.087611
     71 H31        -6.4160   -2.3770   -3.2990 hc        1 MOL      0.087611
     72 N7         -6.5870   -2.1890    0.5260 n         1 MOL     -0.173926
     73 C23        -6.4670   -3.1910    1.6020 c3        1 MOL     -0.218028
     74 C24        -5.3940   -4.2350    1.3420 c         1 MOL      0.526946
     75 O13        -5.4580   -5.4190    1.8370 o         1 MOL     -0.553536
     76 H32        -6.0960   -1.3180    0.6440 hn        1 MOL      0.259344
     77 H33        -7.3730   -3.7890    1.6920 h1        1 MOL      0.117784
     78 H34        -6.2080   -2.8400    2.6040 h1        1 MOL      0.117784
     79 N8         -4.4340   -3.8390    0.4270 n         1 MOL     -0.287642
     80 C25        -3.1250   -4.4890    0.4000 c3        1 MOL     -0.112523
     81 C26        -1.9350   -3.5130    0.5710 c         1 MOL      0.628066
     82 O14        -1.9070   -2.3460    0.1790 o         1 MOL     -0.632570
     83 C27        -2.9680   -5.4100   -0.9040 c3        1 MOL      0.330679
     84 C28        -3.6170   -6.8000   -0.8540 c3        1 MOL     -0.392003
     85 O15        -3.3630   -4.7520   -2.0960 oh        1 MOL     -0.577802
     86 H35        -4.4990   -2.8680    0.1420 hn        1 MOL      0.259248
     87 H36        -3.0990   -5.1900    1.2230 h1        1 MOL      0.070295
     88 H37        -1.9280   -5.7180   -0.9180 h1        1 MOL      0.021277
     89 H38        -4.2090   -4.3240   -1.9440 ho        1 MOL      0.388620
     90 H39        -3.3910   -7.3650   -1.7660 hc        1 MOL      0.105314
     91 H40        -3.2140   -7.3570   -0.0170 hc        1 MOL      0.105314
     92 H41        -4.6920   -6.8060   -0.6920 hc        1 MOL      0.105314
     93 N9         -0.9650   -4.0100    1.3910 n         1 MOL     -0.570974
     94 C29         0.2390   -3.1620    1.6340 c3        1 MOL      0.165742
     95 C30         1.4390   -3.7730    0.8390 c         1 MOL      0.233892
     96 O16         1.6480   -5.0390    0.9400 o         1 MOL     -0.529894
     97 C31         0.6620   -3.1540    3.1640 c3        1 MOL      0.311180
     98 C32        -0.5520   -2.5080    4.0080 c3        1 MOL      0.174234
     99 C33         1.8370   -2.2520    3.5220 c3        1 MOL     -0.717265
    100 C34        -0.3990   -2.9210    5.5390 c3        1 MOL     -0.378950
    101 H42        -0.9810   -4.9500    1.7590 hn        1 MOL      0.317570
    102 H43         0.1310   -2.1950    1.1620 h1        1 MOL      0.058130
    103 H44         0.6690   -4.1850    3.5180 hc        1 MOL     -0.021156
    104 H45        -1.4660   -2.9060    3.5670 hc        1 MOL     -0.041023
    105 H46        -0.6390   -1.4320    3.8580 hc        1 MOL     -0.041023
    106 H47         1.5990   -1.2130    3.2740 hc        1 MOL      0.150749
    107 H48         2.1240   -2.3790    4.5650 hc        1 MOL      0.150749
    108 H49         2.6820   -2.5650    2.9060 hc        1 MOL      0.150749
    109 H50        -1.2550   -2.5980    6.1260 hc        1 MOL      0.091766
    110 H51        -0.2840   -3.9920    5.7190 hc        1 MOL      0.091766
    111 H52         0.4530   -2.3380    5.8960 hc        1 MOL      0.091766
    112 N10         2.1500   -2.8960    0.1190 n         1 MOL      0.000225
    113 C35         3.3020   -3.1690   -0.7170 c3        1 MOL      0.085256
    114 C36         4.6560   -2.9890   -0.0540 c         1 MOL      0.230785
    115 O17         4.7300   -2.2780    0.9720 o         1 MOL     -0.318922
    116 C37         3.2590   -2.2670   -1.9680 c3        1 MOL     -0.108068
    117 C38         2.0350   -2.5010   -2.8300 c3        1 MOL     -0.338794
    118 O18         3.2540   -0.9870   -1.5070 oh        1 MOL     -0.004909
    119 H53         1.7310   -1.9770    0.0720 hn        1 MOL      0.233005
    120 H54         3.2460   -4.2140   -1.0310 h1        1 MOL      0.060610
    121 H55         4.1250   -2.3810   -2.6200 h1        1 MOL      0.041393
    122 H56         2.8940   -0.3550   -2.1300 ho        1 MOL      0.260413
    123 H57         1.9960   -3.5380   -3.1470 hc        1 MOL      0.099722
    124 H58         1.1470   -2.3060   -2.2270 hc        1 MOL      0.099722
    125 H59         2.0080   -1.8090   -3.6730 hc        1 MOL      0.099722
    126 N11         5.8220   -3.4090   -0.5700 n         1 MOL     -0.231031
    127 C39         7.2120   -3.2070   -0.0470 c3        1 MOL     -0.112113
    128 C40         7.6390   -1.6810   -0.1450 c         1 MOL      0.344557
    129 O19         8.4900   -1.1660    0.5610 o         1 MOL     -0.468955
    130 C41         8.2850   -3.9230   -0.8130 c3        1 MOL      0.311865
    131 C42         8.6310   -5.2590   -0.3440 c3        1 MOL     -0.421084
    132 O20         7.9610   -3.9620   -2.2550 oh        1 MOL     -0.648084
    133 H60         5.8290   -3.9620   -1.4070 hn        1 MOL      0.271468
    134 H61         7.1940   -3.5070    1.0020 h1        1 MOL      0.142391
    135 H62         9.1560   -3.2710   -0.7730 h1        1 MOL      0.062801
    136 H63         8.7630   -4.3360   -2.6450 ho        1 MOL      0.408693
    137 H64         7.9400   -5.9280   -0.8710 hc        1 MOL      0.118047
    138 H65         9.6860   -5.5180   -0.3970 hc        1 MOL      0.118047
    139 H66         8.5420   -5.3030    0.7500 hc        1 MOL      0.118047
    140 N12         7.0040   -0.9570   -1.0690 n         1 MOL     -0.208283
    141 C43         7.0380    0.5030   -1.1670 c3        1 MOL     -0.065667
    142 C44         6.2040    1.1580   -0.0970 c         1 MOL      0.425144
    143 O21         6.6470    2.1630    0.4690 o         1 MOL     -0.536576
    144 C45         6.4890    0.8250   -2.5630 c3        1 MOL      0.020187
    145 C46         6.4680    2.3430   -3.0270 c3        1 MOL     -0.332045
    146 C47         6.1670    2.5810   -4.5020 c3        1 MOL     -0.124203
    147 C48         6.0170    4.0400   -4.7750 c3        1 MOL      0.107399
    148 N13         6.3020    4.3180   -6.2250 n4        1 MOL     -0.325510
    149 H67         6.4080   -1.3880   -1.7670 hn        1 MOL      0.183147
    150 H68         8.0640    0.8670   -1.1050 h1        1 MOL      0.117652
    151 H69         5.4840    0.3930   -2.6060 hc        1 MOL      0.020164
    152 H70         7.0510    0.3000   -3.3390 hc        1 MOL      0.020164
    153 H71         7.4430    2.8000   -2.8370 hc        1 MOL      0.119118
    154 H72         5.8150    2.9300   -2.3880 hc        1 MOL      0.119118
    155 H73         5.3930    1.9790   -4.9860 hc        1 MOL      0.096149
    156 H74         7.1010    2.3110   -4.9940 hc        1 MOL      0.096149
    157 H75         6.7070    4.5840   -4.1380 hx        1 MOL      0.081128
    158 H76         5.0400    4.4920   -4.5740 hx        1 MOL      0.081128
    159 H77         7.2610    4.4600   -6.5060 hn        1 MOL      0.287230
    160 H78         5.8650    3.6650   -6.8660 hn        1 MOL      0.287230
    161 H79         5.9150    5.2270   -6.4360 hn        1 MOL      0.287230
    162 N14         5.0300    0.6600    0.2470 n         1 MOL      0.136434
    163 C49         4.2460    1.2350    1.2960 c3        1 MOL     -0.054586
    164 C50         4.9210    1.0580    2.6800 c         1 MOL      0.342153
    165 O22         5.2500    2.0400    3.2920 o         1 MOL     -0.519022
    166 C51         2.8310    0.6310    1.2350 c3        1 MOL      0.152147
    167 C52         2.0600    1.4920    0.2020 c3        1 MOL     -0.297587
    168 C53         0.6880    0.9350   -0.3450 c         1 MOL      0.660133
    169 O23        -0.0580    1.6980   -0.9270 o         1 MOL     -0.761321
    170 O24         0.2900   -0.2560   -0.2510 o         1 MOL     -0.761321
    171 H80         4.6670   -0.0810   -0.3240 hn        1 MOL     -0.196767
    172 H81         4.0710    2.2780    1.0440 h1        1 MOL      0.028458
    173 H82         2.3190    0.6560    2.2020 hc        1 MOL      0.015954
    174 H83         2.8470   -0.4450    1.0790 hc        1 MOL      0.015954
    175 H84         2.7350    1.5090   -0.6560 hc        1 MOL      0.065028
    176 H85         1.8440    2.4930    0.5490 hc        1 MOL      0.065028
    177 N15         5.4150   -0.1320    3.0010 n         1 MOL     -0.027008
    178 C54         6.4130   -0.4200    4.0640 c3        1 MOL     -0.355707
    179 H86         7.1380    0.3930    4.1120 h1        1 MOL      0.128960
    180 H87         5.9060   -0.5100    5.0250 h1        1 MOL      0.128960
    181 H88         6.9290   -1.3530    3.8360 h1        1 MOL      0.128960
    182 H89         5.1400   -0.9340    2.4580 hn        1 MOL      0.101917
    183 Ca1        -1.9830   -0.2560   -1.5940 Ca        1 MOL      1.736085
    184 O25        -0.3210    0.0660   -3.7440 oh        1 MOL     -0.793026
    185 H90        -0.4920    0.9620   -4.0440 ho        1 MOL      0.381620
    186 H91         0.6250    0.0420   -3.5670 ho        1 MOL      0.381620
    187 O26        -1.4680   -2.5810   -2.6830 oh        1 MOL     -0.793026
    188 H92        -0.9080   -3.0450   -3.3140 ho        1 MOL      0.381620
    189 H93        -2.2730   -3.1090   -2.6490 ho        1 MOL      0.381620
@<TRIPOS>BOND
     1    1    2 1   
     2    1    4 1   
     3    1    5 1   
     4    1    6 1   
     5    2    3 2   
     6    2    7 1   
     7    7    8 1   
     8    7   15 1   
     9    8    9 1   
    10    8   11 1   
    11    8   16 1   
    12    9   10 2   
    13    9   19 1   
    14   11   12 1   
    15   11   17 1   
    16   11   18 1   
    17   12   13 1   
    18   12   14 1   
    19   19   20 1   
    20   19   28 1   
    21   20   21 1   
    22   20   23 1   
    23   20   29 1   
    24   21   22 2   
    25   21   41 1   
    26   23   24 1   
    27   23   30 1   
    28   23   31 1   
    29   24   25 1   
    30   24   32 1   
    31   24   33 1   
    32   25   26 1   
    33   25   34 1   
    34   25   35 1   
    35   26   27 1   
    36   26   36 1   
    37   26   37 1   
    38   27   38 1   
    39   27   39 1   
    40   27   40 1   
    41   41   42 1   
    42   41   49 1   
    43   42   43 1   
    44   42   45 1   
    45   42   50 1   
    46   43   44 2   
    47   43   53 1   
    48   45   46 1   
    49   45   51 1   
    50   45   52 1   
    51   46   47 1   
    52   46   48 1   
    53   53   54 1   
    54   53   57 1   
    55   54   55 1   
    56   54   58 1   
    57   54   59 1   
    58   55   56 2   
    59   55   60 1   
    60   60   61 1   
    61   60   68 1   
    62   61   62 1   
    63   61   64 1   
    64   61   69 1   
    65   62   63 2   
    66   62   72 1   
    67   64   65 1   
    68   64   70 1   
    69   64   71 1   
    70   65   66 1   
    71   65   67 1   
    72   72   73 1   
    73   72   76 1   
    74   73   74 1   
    75   73   77 1   
    76   73   78 1   
    77   74   75 2   
    78   74   79 1   
    79   79   80 1   
    80   79   86 1   
    81   80   81 1   
    82   80   83 1   
    83   80   87 1   
    84   81   82 2   
    85   81   93 1   
    86   83   84 1   
    87   83   85 1   
    88   83   88 1   
    89   84   90 1   
    90   84   91 1   
    91   84   92 1   
    92   85   89 1   
    93   93   94 1   
    94   93  101 1   
    95   94   95 1   
    96   94   97 1   
    97   94  102 1   
    98   95   96 2   
    99   95  112 1   
   100   97   98 1   
   101   97   99 1   
   102   97  103 1   
   103   98  100 1   
   104   98  104 1   
   105   98  105 1   
   106   99  106 1   
   107   99  107 1   
   108   99  108 1   
   109  100  109 1   
   110  100  110 1   
   111  100  111 1   
   112  112  113 1   
   113  112  119 1   
   114  113  114 1   
   115  113  116 1   
   116  113  120 1   
   117  114  115 2   
   118  114  126 1   
   119  116  117 1   
   120  116  118 1   
   121  116  121 1   
   122  117  123 1   
   123  117  124 1   
   124  117  125 1   
   125  118  122 1   
   126  126  127 1   
   127  126  133 1   
   128  127  128 1   
   129  127  130 1   
   130  127  134 1   
   131  128  129 2   
   132  128  140 1   
   133  130  131 1   
   134  130  132 1   
   135  130  135 1   
   136  131  137 1   
   137  131  138 1   
   138  131  139 1   
   139  132  136 1   
   140  140  141 1   
   141  140  149 1   
   142  141  142 1   
   143  141  144 1   
   144  141  150 1   
   145  142  143 2   
   146  142  162 1   
   147  144  145 1   
   148  144  151 1   
   149  144  152 1   
   150  145  146 1   
   151  145  153 1   
   152  145  154 1   
   153  146  147 1   
   154  146  155 1   
   155  146  156 1   
   156  147  148 1   
   157  147  157 1   
   158  147  158 1   
   159  148  159 1   
   160  148  160 1   
   161  148  161 1   
   162  162  163 1   
   163  162  171 1   
   164  163  164 1   
   165  163  166 1   
   166  163  172 1   
   167  164  165 2   
   168  164  177 1   
   169  166  167 1   
   170  166  173 1   
   171  166  174 1   
   172  167  168 1   
   173  167  175 1   
   174  167  176 1   
   175  168  169 1   
   176  168  170 1   
   177  177  178 1   
   178  177  182 1   
   179  178  179 1   
   180  178  180 1   
   181  178  181 1   
   182  184  185 1   
   183  184  186 1   
   184  187  188 1   
   185  187  189 1   
@<TRIPOS>SUBSTRUCTURE
     1 MOL         1 TEMP              0 ****  ****    0 ROOT
