@<TRIPOS>MOLECULE
MOL
  179   176     1     0     0
SMALL
resp


@<TRIPOS>ATOM
      1 C1          1.8170    3.0680    5.0920 c3        1 MOL     -0.404415
      2 C2          1.0770    2.7940    3.7720 c         1 MOL      0.647823
      3 O1          1.6720    2.7940    2.6990 o         1 MOL     -0.566977
      4 H1          2.7950    2.5860    5.0660 hc        1 MOL      0.111235
      5 H2          1.9450    4.1430    5.2210 hc        1 MOL      0.111235
      6 H3          1.2370    2.6680    5.9240 hc        1 MOL      0.111235
      7 N1         -0.2220    2.4880    3.8230 n         1 MOL     -0.414697
      8 C3         -0.9710    2.0530    2.6720 c3        1 MOL     -0.000783
      9 C4         -1.3290    3.1970    1.6940 c         1 MOL      0.430046
     10 O2         -2.4140    3.8120    1.8150 o         1 MOL     -0.486619
     11 C5         -2.1860    1.1770    3.1260 c3        1 MOL      0.019344
     12 C6         -3.1340    0.6820    2.0060 c         1 MOL      0.668313
     13 O3         -4.3030    0.3960    2.3270 o         1 MOL     -0.725203
     14 O4         -2.7140    0.5460    0.8720 o         1 MOL     -0.725203
     15 H4         -0.6490    2.4680    4.7340 hn        1 MOL      0.261800
     16 H5         -0.2810    1.3870    2.1570 h1        1 MOL      0.070000
     17 H6         -2.7850    1.6680    3.8860 hc        1 MOL      0.010853
     18 H7         -1.8410    0.2660    3.6170 hc        1 MOL      0.010853
     19 N2         -0.4130    3.5310    0.8010 n         1 MOL     -0.340985
     20 C7         -0.4270    4.8290    0.1750 c3        1 MOL     -0.037267
     21 C8         -1.6290    5.1720   -0.7450 c         1 MOL      0.415967
     22 O5         -2.0070    6.3430   -0.8070 o         1 MOL     -0.526783
     23 C9          0.8130    5.0460   -0.6540 c3        1 MOL     -0.166300
     24 C10         0.9910    6.5100   -1.0890 c3        1 MOL     -0.105746
     25 C11         1.2810    7.5460   -0.0280 c3        1 MOL     -0.004716
     26 C12         1.4300    8.9970   -0.6170 c3        1 MOL      0.012540
     27 N3          0.9600    9.9040    0.4520 n4        1 MOL     -0.292621
     28 H8          0.3950    2.9330    0.8380 hn        1 MOL      0.286571
     29 H9         -0.5030    5.5270    1.0090 h1        1 MOL      0.107707
     30 H10         0.9480    4.4170   -1.5330 hc        1 MOL      0.142658
     31 H11         1.7080    4.8540   -0.0710 hc        1 MOL      0.142658
     32 H12         0.0930    6.8320   -1.6130 hc        1 MOL      0.047195
     33 H13         1.8210    6.5040   -1.7970 hc        1 MOL      0.047195
     34 H14         2.2200    7.3040    0.4600 hc        1 MOL      0.026686
     35 H15         0.4180    7.5870    0.6430 hc        1 MOL      0.026686
     36 H16         0.7880    9.1920   -1.4690 hx        1 MOL      0.094241
     37 H17         2.4800    9.1910   -0.8510 hx        1 MOL      0.094241
     38 H18         1.6460   10.0050    1.1920 hn        1 MOL      0.308198
     39 H19         0.7520   10.8170    0.0860 hn        1 MOL      0.308198
     40 H20         0.1160    9.5870    0.9140 hn        1 MOL      0.308198
     41 N4         -2.3210    4.1970   -1.3680 n         1 MOL     -0.240296
     42 C13        -3.6210    4.2750   -2.0520 c3        1 MOL      0.155020
     43 C14        -4.8870    3.8720   -1.3280 c         1 MOL      0.311823
     44 O6         -6.0310    4.1420   -1.7890 o         1 MOL     -0.544031
     45 C15        -3.4270    3.5000   -3.4250 c3        1 MOL     -0.185013
     46 C16        -3.0820    1.9750   -3.3070 c         1 MOL      0.797585
     47 O7         -2.9820    1.3170   -4.3870 o         1 MOL     -0.710526
     48 O8         -2.9170    1.5030   -2.1860 o         1 MOL     -0.710526
     49 H21        -1.8890    3.2800   -1.3220 hn        1 MOL      0.193404
     50 H22        -3.6930    5.3190   -2.3560 h1        1 MOL      0.048070
     51 H23        -2.7000    4.0470   -4.0200 hc        1 MOL      0.041089
     52 H24        -4.3940    3.6140   -3.9120 hc        1 MOL      0.041089
     53 N5         -4.8320    3.1740   -0.2020 n         1 MOL      0.088184
     54 C17        -6.0040    2.7890    0.5780 c3        1 MOL     -0.344482
     55 C18        -6.6500    1.3760    0.2450 c         1 MOL      0.609206
     56 O9         -7.6430    1.0010    0.8530 o         1 MOL     -0.577007
     57 H25        -3.9060    2.9820    0.1650 hn        1 MOL     -0.009439
     58 H26        -6.7160    3.6220    0.5510 h1        1 MOL      0.151221
     59 H27        -5.6360    2.7270    1.6040 h1        1 MOL      0.151221
     60 N6         -5.9490    0.5600   -0.5350 n         1 MOL     -0.367620
     61 C19        -6.3560   -0.7740   -1.0560 c3        1 MOL      0.030873
     62 C20        -6.3180   -1.9590   -0.0010 c         1 MOL      0.320895
     63 O10        -6.6800   -3.1140   -0.2920 o         1 MOL     -0.497515
     64 C21        -5.6760   -0.9630   -2.3940 c3        1 MOL     -0.299497
     65 C22        -4.4640   -1.8980   -2.2200 c         1 MOL      0.712052
     66 N7         -4.4120   -2.9710   -2.9870 n         1 MOL     -0.763221
     67 O11        -3.5160   -1.6970   -1.4170 o         1 MOL     -0.644591
     68 H28        -5.0480    0.8740   -0.8750 hn        1 MOL      0.228506
     69 H29        -7.4190   -0.7150   -1.2690 h1        1 MOL      0.111088
     70 H30        -5.3160   -0.0350   -2.8310 hc        1 MOL      0.114596
     71 H31        -6.3540   -1.4680   -3.0820 hc        1 MOL      0.114596
     72 H32        -5.2060   -3.1700   -3.5650 hn        1 MOL      0.356650
     73 H33        -3.7410   -3.7130   -2.8450 hn        1 MOL      0.356650
     74 N8         -5.9200   -1.6300    1.2510 n         1 MOL     -0.116435
     75 C23        -5.9310   -2.4710    2.3910 c3        1 MOL     -0.305059
     76 C24        -4.7160   -3.3510    2.7080 c         1 MOL      0.466177
     77 O12        -4.7750   -4.0130    3.7410 o         1 MOL     -0.549426
     78 H34        -5.4750   -0.7300    1.3610 hn        1 MOL      0.310134
     79 H35        -6.8890   -2.9820    2.3450 h1        1 MOL      0.143638
     80 H36        -6.0830   -1.8380    3.2730 h1        1 MOL      0.143638
     81 N9         -3.6400   -3.2570    1.9320 n         1 MOL     -0.035894
     82 C25        -2.3360   -3.7800    2.2010 c3        1 MOL     -0.020474
     83 C26        -1.1510   -2.8750    1.7320 c         1 MOL      0.531584
     84 O13        -1.2770   -2.0700    0.8420 o         1 MOL     -0.566943
     85 C27        -2.2480   -5.2340    1.7190 c3        1 MOL     -0.214242
     86 C28        -2.4790   -5.4360    0.2110 ca        1 MOL      0.119640
     87 C29        -1.3930   -5.3410   -0.7620 ca        1 MOL     -0.209800
     88 C30        -3.7910   -5.7530   -0.2250 ca        1 MOL     -0.209800
     89 C31        -1.7120   -5.4260   -2.1140 ca        1 MOL     -0.204546
     90 C32        -4.0690   -5.7570   -1.6140 ca        1 MOL     -0.204546
     91 C33        -3.0410   -5.6650   -2.5650 ca        1 MOL      0.236101
     92 O14        -3.3010   -5.7740   -3.8950 oh        1 MOL     -0.460089
     93 H37        -3.6330   -2.6140    1.1540 hn        1 MOL      0.159463
     94 H38        -2.2580   -3.7650    3.2830 h1        1 MOL      0.039885
     95 H39        -2.9740   -5.8380    2.2680 hc        1 MOL      0.082980
     96 H40        -1.2520   -5.6430    1.9210 hc        1 MOL      0.082980
     97 H41        -0.3810   -5.1130   -0.4800 ha        1 MOL      0.173580
     98 H42        -4.5670   -5.8210    0.5260 ha        1 MOL      0.173580
     99 H43        -0.8640   -5.2920   -2.7640 ha        1 MOL      0.142046
    100 H44        -5.0790   -5.9300   -1.9690 ha        1 MOL      0.142046
    101 H45        -2.5140   -5.9420   -4.4200 ho        1 MOL      0.346038
    102 N10        -0.0290   -3.1280    2.3960 n         1 MOL     -0.461904
    103 C34         1.2640   -2.5160    2.1070 c3        1 MOL      0.093369
    104 C35         2.0960   -3.4860    1.2000 c         1 MOL      0.199133
    105 O15         2.1280   -4.6890    1.4540 o         1 MOL     -0.507771
    106 C36         2.1380   -2.2590    3.3850 c3        1 MOL      0.237089
    107 C37         1.2770   -1.7820    4.5910 c3        1 MOL      0.241982
    108 C38         3.2710   -1.2890    3.1140 c3        1 MOL     -0.512481
    109 C39         1.9440   -1.6530    6.0000 c3        1 MOL     -0.263970
    110 H46        -0.0030   -3.7810    3.1680 hn        1 MOL      0.315009
    111 H47         1.1290   -1.5730    1.5890 h1        1 MOL      0.074554
    112 H48         2.4760   -3.2270    3.7490 hc        1 MOL     -0.016518
    113 H49         0.4360   -2.4660    4.6930 hc        1 MOL     -0.075995
    114 H50         0.7900   -0.8570    4.2790 hc        1 MOL     -0.075995
    115 H51         3.9420   -1.6520    2.3280 hc        1 MOL      0.106597
    116 H52         2.9130   -0.2840    2.9020 hc        1 MOL      0.106597
    117 H53         3.8590   -1.3230    4.0290 hc        1 MOL      0.106597
    118 H54         2.1690   -2.6990    6.2090 hc        1 MOL      0.059483
    119 H55         2.8920   -1.1300    5.8890 hc        1 MOL      0.059483
    120 H56         1.3080   -1.0660    6.6710 hc        1 MOL      0.059483
    121 N11         2.8300   -2.8890    0.2780 n         1 MOL      0.030373
    122 C40         3.8440   -3.5570   -0.5750 c3        1 MOL     -0.054802
    123 C41         5.2540   -3.0110   -0.3520 c         1 MOL      0.471318
    124 O16         5.3210   -2.0030    0.4320 o         1 MOL     -0.513936
    125 C42         3.5220   -3.3590   -2.0770 c3        1 MOL     -0.125479
    126 O17         3.7230   -2.0330   -2.4470 oh        1 MOL     -0.477303
    127 H57         2.8180   -1.8820    0.3490 hn        1 MOL      0.333798
    128 H58         3.9930   -4.6100   -0.3320 h1        1 MOL      0.086315
    129 H59         2.4900   -3.6490   -2.2720 h1        1 MOL      0.075108
    130 H60         4.2000   -3.9910   -2.6500 h1        1 MOL      0.075108
    131 H61         3.6750   -2.0350   -3.4050 ho        1 MOL      0.396790
    132 N12         6.2920   -3.6170   -0.8740 n         1 MOL     -0.460055
    133 C43         7.6700   -3.2250   -0.4570 c3        1 MOL      0.224197
    134 C44         7.9510   -1.7750   -0.9050 c         1 MOL      0.313288
    135 O18         8.7300   -1.0590   -0.2400 o         1 MOL     -0.465427
    136 C45         8.7080   -4.2250   -0.9580 c3        1 MOL     -0.310086
    137 H62         6.1560   -4.4250   -1.4590 hn        1 MOL      0.302742
    138 H63         7.7800   -3.3320    0.6180 h1        1 MOL      0.094389
    139 H64         9.3520   -4.4370   -0.1030 hc        1 MOL      0.096637
    140 H65         8.2390   -5.1880   -1.1810 hc        1 MOL      0.096637
    141 H66         9.1080   -3.9870   -1.9460 hc        1 MOL      0.096637
    142 N13         7.4130   -1.3220   -2.0910 n         1 MOL     -0.254668
    143 C46         7.7590   -0.0540   -2.6520 c3        1 MOL      0.133273
    144 C47         7.0080    1.0760   -1.8470 c         1 MOL      0.360626
    145 O19         7.5990    2.1180   -1.6340 o         1 MOL     -0.478339
    146 C48         7.4110   -0.0640   -4.0830 c3        1 MOL     -0.213075
    147 H67         6.7930   -1.8310   -2.7170 hn        1 MOL      0.205619
    148 H68         8.8290    0.0950   -2.5510 h1        1 MOL      0.079845
    149 H69         7.9580    0.7530   -4.5590 hc        1 MOL      0.057378
    150 H70         7.6270   -1.0390   -4.5390 hc        1 MOL      0.057378
    151 H71         6.3410    0.0970   -4.1470 hc        1 MOL      0.057378
    152 N14         5.7820    0.8070   -1.2770 n         1 MOL     -0.133481
    153 C49         5.0330    1.7700   -0.4770 c3        1 MOL     -0.083489
    154 C50         5.6160    1.8810    0.9270 c         1 MOL      0.383328
    155 O20         5.7790    2.9380    1.5200 o         1 MOL     -0.539059
    156 C51         3.5560    1.3600   -0.2760 c3        1 MOL     -0.060135
    157 C52         2.6440    1.8080   -1.4020 c3        1 MOL      0.034938
    158 C53         1.1630    1.3330   -1.1180 c         1 MOL      0.565458
    159 O21         0.8460    0.5950   -0.1250 o         1 MOL     -0.759188
    160 O22         0.2200    1.6630   -1.8870 o         1 MOL     -0.759188
    161 H72         5.2980   -0.0480   -1.5150 hn        1 MOL      0.113211
    162 H73         5.1460    2.7440   -0.9410 h1        1 MOL      0.102701
    163 H74         3.1290    1.7910    0.6300 hc        1 MOL      0.036079
    164 H75         3.4860    0.2900   -0.1190 hc        1 MOL      0.036079
    165 H76         3.0060    1.3480   -2.3230 hc        1 MOL     -0.015190
    166 H77         2.7010    2.8750   -1.5630 hc        1 MOL     -0.015190
    167 N15         6.1780    0.7760    1.4370 n         1 MOL     -0.040854
    168 C54         7.0710    0.7060    2.5650 c3        1 MOL     -0.112651
    169 H78         7.8840    0.0150    2.3430 h1        1 MOL      0.057660
    170 H79         7.4810    1.6960    2.7650 h1        1 MOL      0.057660
    171 H80         6.5250    0.3550    3.4410 h1        1 MOL      0.057660
    172 H81         5.9360   -0.1010    0.9830 hn        1 MOL      0.138424
    173 Ca1        -1.3550   -0.3320   -1.1140 Ca        1 MOL      1.814838
    174 O23         0.6790   -1.9820   -1.8180 oh        1 MOL     -0.921449
    175 H82         1.6280   -1.8600   -1.8850 ho        1 MOL      0.416802
    176 H83         0.4450   -2.4890   -2.6030 ho        1 MOL      0.416802
    177 O24        -1.6510   -0.8010   -3.6930 oh        1 MOL     -0.921449
    178 H84        -1.3930   -1.1800   -4.5340 ho        1 MOL      0.416802
    179 H85        -2.1110    0.0100   -3.9160 ho        1 MOL      0.416802
@<TRIPOS>BOND
     1    1    2 1   
     2    1    4 1   
     3    1    5 1   
     4    1    6 1   
     5    2    3 2   
     6    2    7 1   
     7    7    8 1   
     8    7   15 1   
     9    8    9 1   
    10    8   11 1   
    11    8   16 1   
    12    9   10 2   
    13    9   19 1   
    14   11   12 1   
    15   11   17 1   
    16   11   18 1   
    17   12   13 1   
    18   12   14 1   
    19   19   20 1   
    20   19   28 1   
    21   20   21 1   
    22   20   23 1   
    23   20   29 1   
    24   21   22 2   
    25   21   41 1   
    26   23   24 1   
    27   23   30 1   
    28   23   31 1   
    29   24   25 1   
    30   24   32 1   
    31   24   33 1   
    32   25   26 1   
    33   25   34 1   
    34   25   35 1   
    35   26   27 1   
    36   26   36 1   
    37   26   37 1   
    38   27   38 1   
    39   27   39 1   
    40   27   40 1   
    41   41   42 1   
    42   41   49 1   
    43   42   43 1   
    44   42   45 1   
    45   42   50 1   
    46   43   44 2   
    47   43   53 1   
    48   45   46 1   
    49   45   51 1   
    50   45   52 1   
    51   46   47 1   
    52   46   48 1   
    53   53   54 1   
    54   53   57 1   
    55   54   55 1   
    56   54   58 1   
    57   54   59 1   
    58   55   56 2   
    59   55   60 1   
    60   60   61 1   
    61   60   68 1   
    62   61   62 1   
    63   61   64 1   
    64   61   69 1   
    65   62   63 2   
    66   62   74 1   
    67   64   65 1   
    68   64   70 1   
    69   64   71 1   
    70   65   66 1   
    71   65   67 2   
    72   66   72 1   
    73   66   73 1   
    74   74   75 1   
    75   74   78 1   
    76   75   76 1   
    77   75   79 1   
    78   75   80 1   
    79   76   77 2   
    80   76   81 1   
    81   81   82 1   
    82   81   93 1   
    83   82   83 1   
    84   82   85 1   
    85   82   94 1   
    86   83   84 2   
    87   83  102 1   
    88   85   86 1   
    89   85   95 1   
    90   85   96 1   
    91   86   87 ar  
    92   86   88 ar  
    93   87   89 ar  
    94   87   97 1   
    95   88   90 ar  
    96   88   98 1   
    97   89   91 ar  
    98   89   99 1   
    99   90   91 ar  
   100   90  100 1   
   101   91   92 1   
   102   92  101 1   
   103  102  103 1   
   104  102  110 1   
   105  103  104 1   
   106  103  106 1   
   107  103  111 1   
   108  104  105 2   
   109  104  121 1   
   110  106  107 1   
   111  106  108 1   
   112  106  112 1   
   113  107  109 1   
   114  107  113 1   
   115  107  114 1   
   116  108  115 1   
   117  108  116 1   
   118  108  117 1   
   119  109  118 1   
   120  109  119 1   
   121  109  120 1   
   122  121  122 1   
   123  121  127 1   
   124  122  123 1   
   125  122  125 1   
   126  122  128 1   
   127  123  124 2   
   128  123  132 1   
   129  125  126 1   
   130  125  129 1   
   131  125  130 1   
   132  126  131 1   
   133  132  133 1   
   134  132  137 1   
   135  133  134 1   
   136  133  136 1   
   137  133  138 1   
   138  134  135 2   
   139  134  142 1   
   140  136  139 1   
   141  136  140 1   
   142  136  141 1   
   143  142  143 1   
   144  142  147 1   
   145  143  144 1   
   146  143  146 1   
   147  143  148 1   
   148  144  145 2   
   149  144  152 1   
   150  146  149 1   
   151  146  150 1   
   152  146  151 1   
   153  152  153 1   
   154  152  161 1   
   155  153  154 1   
   156  153  156 1   
   157  153  162 1   
   158  154  155 2   
   159  154  167 1   
   160  156  157 1   
   161  156  163 1   
   162  156  164 1   
   163  157  158 1   
   164  157  165 1   
   165  157  166 1   
   166  158  159 1   
   167  158  160 1   
   168  167  168 1   
   169  167  172 1   
   170  168  169 1   
   171  168  170 1   
   172  168  171 1   
   173  174  175 1   
   174  174  176 1   
   175  177  178 1   
   176  177  179 1   
@<TRIPOS>SUBSTRUCTURE
     1 MOL         1 TEMP              0 ****  ****    0 ROOT
