@<TRIPOS>MOLECULE
MOL
  189   185     1     0     0
SMALL
resp


@<TRIPOS>ATOM
      1 C1         -0.7790    1.3190    6.5920 c3        1 MOL     -0.352562
      2 C2         -1.0170    1.3320    5.0710 c         1 MOL      0.688690
      3 O1         -0.0720    1.5060    4.3250 o         1 MOL     -0.610923
      4 H1         -1.7040    1.5810    7.1060 hc        1 MOL      0.091131
      5 H2         -0.4610    0.3230    6.9020 hc        1 MOL      0.091131
      6 H3         -0.0050    2.0430    6.8450 hc        1 MOL      0.091131
      7 N1         -2.2330    1.0300    4.6090 n         1 MOL     -0.546703
      8 C3         -2.6580    1.0090    3.1970 c3        1 MOL      0.156618
      9 C4         -3.1340    2.4400    2.8540 c         1 MOL      0.409345
     10 O2         -4.2850    2.7930    3.0130 o         1 MOL     -0.470976
     11 C5         -3.7090   -0.0980    3.0330 c3        1 MOL     -0.297144
     12 C6         -4.3540   -0.2160    1.6420 c         1 MOL      0.774183
     13 O3         -5.5230   -0.6740    1.5860 o         1 MOL     -0.665323
     14 O4         -3.7550    0.1780    0.6090 o         1 MOL     -0.665323
     15 H4         -2.8830    0.7300    5.3150 hn        1 MOL      0.314721
     16 H5         -1.8420    0.5800    2.6170 h1        1 MOL      0.037855
     17 H6         -4.5070    0.1770    3.7190 hc        1 MOL      0.066961
     18 H7         -3.3460   -1.0820    3.3220 hc        1 MOL      0.066961
     19 N2         -2.2390    3.2230    2.2250 n         1 MOL     -0.256274
     20 C7         -2.4280    4.6840    2.0480 c3        1 MOL      0.017958
     21 C8         -3.5680    5.0530    1.0790 c         1 MOL      0.395646
     22 O5         -4.2480    6.0740    1.2300 o         1 MOL     -0.555943
     23 C9         -1.1670    5.4090    1.7710 c3        1 MOL     -0.205793
     24 C10        -0.5810    5.2190    0.3270 c3        1 MOL      0.477717
     25 C11         0.5640    6.2410    0.2050 c3        1 MOL     -0.366160
     26 C12         1.5750    5.7110   -0.8420 c3        1 MOL      0.337403
     27 N3          2.7000    6.7400   -1.0340 n4        1 MOL     -0.494674
     28 H8         -1.3510    2.8250    1.9440 hn        1 MOL      0.163874
     29 H9         -2.8000    5.0950    2.9950 h1        1 MOL      0.088716
     30 H10        -0.4930    5.0320    2.5420 hc        1 MOL      0.065118
     31 H11        -1.3770    6.4530    1.9980 hc        1 MOL      0.065118
     32 H12        -1.2690    5.3470   -0.5030 hc        1 MOL     -0.070965
     33 H13        -0.1180    4.2270    0.3150 hc        1 MOL     -0.070965
     34 H14         1.1250    6.2590    1.1460 hc        1 MOL      0.067687
     35 H15         0.1530    7.1950   -0.1300 hc        1 MOL      0.067687
     36 H16         1.1240    5.3810   -1.7780 hx        1 MOL      0.004496
     37 H17         1.9570    4.7860   -0.4210 hx        1 MOL      0.004496
     38 H18         2.2840    7.4860   -1.5740 hn        1 MOL      0.348511
     39 H19         2.8480    7.0960   -0.0960 hn        1 MOL      0.348511
     40 H20         3.4970    6.3310   -1.4880 hn        1 MOL      0.348511
     41 N4         -3.8320    4.1730    0.1270 n         1 MOL     -0.072896
     42 C13        -4.7170    4.4170   -1.0240 c3        1 MOL     -0.104347
     43 C14        -5.9520    3.4050   -1.1330 c         1 MOL      0.464935
     44 O6         -6.8250    3.6070   -1.9460 o         1 MOL     -0.515013
     45 C15        -3.8270    4.4420   -2.2470 c3        1 MOL     -0.117258
     46 C16        -3.0320    3.1670   -2.4850 c         1 MOL      0.792316
     47 O7         -2.2880    3.2260   -3.4680 o         1 MOL     -0.714914
     48 O8         -3.1080    2.1950   -1.6870 o         1 MOL     -0.714914
     49 H21        -3.1630    3.4250    0.0180 hn        1 MOL     -0.006570
     50 H22        -5.0610    5.4400   -0.8810 h1        1 MOL      0.110374
     51 H23        -3.1630    5.3100   -2.2280 hc        1 MOL      0.041353
     52 H24        -4.4210    4.6010   -3.1470 hc        1 MOL      0.041353
     53 N5         -6.0810    2.3990   -0.2690 n         1 MOL     -0.165336
     54 C17        -7.3390    1.6320   -0.0020 c3        1 MOL     -0.297555
     55 C18        -7.5240    0.5810   -1.0000 c         1 MOL      0.670534
     56 O9         -8.6430    0.5150   -1.4380 o         1 MOL     -0.584863
     57 H25        -5.2370    2.1450    0.2240 hn        1 MOL      0.159479
     58 H26        -8.1400    2.3670   -0.0380 h1        1 MOL      0.145954
     59 H27        -7.2720    1.1220    0.9620 h1        1 MOL      0.145954
     60 N6         -6.5630   -0.2190   -1.3410 n         1 MOL     -0.349794
     61 C19        -6.7320   -1.3320   -2.3490 c3        1 MOL     -0.001672
     62 C20        -6.7940   -2.6850   -1.6280 c         1 MOL      0.381268
     63 O10        -6.9670   -3.7000   -2.3110 o         1 MOL     -0.507072
     64 C21        -5.6560   -1.1870   -3.3950 c3        1 MOL     -0.025389
     65 C22        -4.2150   -0.9060   -2.8830 c         1 MOL      0.548673
     66 O11        -3.8380   -1.4810   -1.8720 o         1 MOL     -0.664303
     67 O12        -3.3400   -0.3330   -3.6200 o         1 MOL     -0.664303
     68 H28        -5.6460   -0.0820   -0.9380 hn        1 MOL      0.209838
     69 H29        -7.6440   -1.2790   -2.9420 h1        1 MOL      0.114044
     70 H30        -5.9720   -0.3420   -4.0100 hc        1 MOL      0.037866
     71 H31        -5.7380   -2.0110   -4.1070 hc        1 MOL      0.037866
     72 N7         -6.5630   -2.6760   -0.2690 n         1 MOL     -0.217346
     73 C23        -6.6110   -3.9290    0.4970 c3        1 MOL     -0.259552
     74 C24        -5.2400   -4.5790    0.3440 c         1 MOL      0.605610
     75 O13        -5.2110   -5.7410    0.6220 o         1 MOL     -0.584287
     76 H32        -6.2220   -1.8470    0.2070 hn        1 MOL      0.213067
     77 H33        -7.3750   -4.5090   -0.0150 h1        1 MOL      0.139357
     78 H34        -6.8230   -3.7860    1.5570 h1        1 MOL      0.139357
     79 N8         -4.1200   -3.9420   -0.0110 n         1 MOL     -0.205291
     80 C25        -2.7290   -4.5140   -0.2370 c3        1 MOL     -0.414896
     81 C26        -1.5960   -3.5920    0.2550 c         1 MOL      0.796738
     82 O14        -1.6610   -2.3710    0.0240 o         1 MOL     -0.653451
     83 C27        -2.5720   -4.8880   -1.7640 c3        1 MOL      0.485138
     84 C28        -3.5840   -5.9640   -2.3640 c3        1 MOL     -0.315080
     85 O15        -2.7930   -3.7570   -2.5400 oh        1 MOL     -0.671203
     86 H35        -4.2800   -2.9840   -0.2720 hn        1 MOL      0.121093
     87 H36        -2.6900   -5.4750    0.2770 h1        1 MOL      0.129433
     88 H37        -1.5780   -5.3020   -1.9370 h1        1 MOL     -0.031459
     89 H38        -3.1360   -3.0200   -2.0440 ho        1 MOL      0.553403
     90 H39        -4.4850   -5.3950   -2.6310 hc        1 MOL      0.081169
     91 H40        -3.1020   -6.5390   -3.1590 hc        1 MOL      0.081169
     92 H41        -3.7900   -6.7310   -1.6140 hc        1 MOL      0.081169
     93 N9         -0.5920   -4.1720    0.8270 n         1 MOL     -0.541124
     94 C29         0.6080   -3.4470    1.1910 c3        1 MOL     -0.035369
     95 C30         1.6690   -3.6680    0.0530 c         1 MOL      0.459909
     96 O16         2.0260   -4.8250   -0.2930 o         1 MOL     -0.553795
     97 C31         1.0230   -3.7770    2.6340 c3        1 MOL      0.117073
     98 C32         0.0340   -3.1940    3.6150 c3        1 MOL      0.011449
     99 C33         2.4640   -3.2820    3.0370 c3        1 MOL     -0.278039
    100 C34         0.0860   -3.7490    5.0210 c3        1 MOL     -0.176767
    101 H42        -0.5630   -5.1720    0.9750 hn        1 MOL      0.316615
    102 H43         0.3530   -2.3980    1.0950 h1        1 MOL      0.055888
    103 H44         1.0880   -4.8560    2.7550 hc        1 MOL      0.024159
    104 H45        -0.9570   -3.3480    3.1970 hc        1 MOL      0.047829
    105 H46         0.3160   -2.1390    3.6930 hc        1 MOL      0.047829
    106 H47         3.2460   -3.6890    2.4110 hc        1 MOL      0.062354
    107 H48         2.4360   -2.1950    2.9900 hc        1 MOL      0.062354
    108 H49         2.5880   -3.5880    4.0840 hc        1 MOL      0.062354
    109 H50        -0.6960   -3.2160    5.5710 hc        1 MOL      0.044939
    110 H51        -0.1230   -4.8160    4.9870 hc        1 MOL      0.044939
    111 H52         1.0400   -3.6290    5.5420 hc        1 MOL      0.044939
    112 N10         2.2820   -2.5640   -0.3640 n         1 MOL      0.039976
    113 C35         3.4630   -2.5090   -1.2660 c3        1 MOL     -0.229298
    114 C36         4.7790   -2.3860   -0.4040 c         1 MOL      0.423682
    115 O17         4.6910   -1.8260    0.6950 o         1 MOL     -0.373464
    116 C37         3.3970   -1.2530   -2.2100 c3        1 MOL      0.309386
    117 C38         2.3890   -1.5860   -3.4040 c3        1 MOL     -0.283970
    118 O18         3.0430   -0.0360   -1.6230 oh        1 MOL     -0.592096
    119 H53         1.9400   -1.6840   -0.0150 hn        1 MOL      0.018870
    120 H54         3.5160   -3.4490   -1.8090 h1        1 MOL      0.104509
    121 H55         4.3700   -1.1250   -2.6890 h1        1 MOL      0.023842
    122 H56         2.1010   -0.0770   -1.4790 ho        1 MOL      0.404034
    123 H57         1.7110   -0.7600   -3.6300 hc        1 MOL      0.074268
    124 H58         2.9270   -1.8380   -4.3140 hc        1 MOL      0.074268
    125 H59         1.7200   -2.3660   -3.0500 hc        1 MOL      0.074268
    126 N11         5.9180   -2.7670   -0.8890 n         1 MOL     -0.354516
    127 C39         7.2450   -2.4820   -0.3110 c3        1 MOL     -0.175277
    128 C40         7.4480   -1.0600   -0.0890 c         1 MOL      0.317438
    129 O19         8.2340   -0.7970    0.8520 o         1 MOL     -0.482230
    130 C41         8.4210   -3.0130   -1.1400 c3        1 MOL      0.301793
    131 C42         8.5470   -4.5430   -0.9680 c3        1 MOL     -0.328969
    132 O20         8.3220   -2.7530   -2.5420 oh        1 MOL     -0.648961
    133 H60         6.0080   -3.2370   -1.7770 hn        1 MOL      0.315166
    134 H61         7.3440   -2.8950    0.6850 h1        1 MOL      0.185503
    135 H62         9.3120   -2.4940   -0.7870 h1        1 MOL      0.050113
    136 H63         9.1350   -2.4090   -2.9110 ho        1 MOL      0.417264
    137 H64         9.4000   -4.9590   -1.4980 hc        1 MOL      0.100108
    138 H65         8.7090   -4.7610    0.0920 hc        1 MOL      0.100108
    139 H66         7.6220   -5.0000   -1.3120 hc        1 MOL      0.100108
    140 N12         6.7240   -0.1600   -0.7470 n         1 MOL     -0.206535
    141 C43         6.8110    1.2800   -0.4200 c3        1 MOL      0.047822
    142 C44         6.0660    1.4950    0.9170 c         1 MOL      0.268760
    143 O21         6.6820    1.9310    1.8690 o         1 MOL     -0.492238
    144 C45         6.2200    2.1410   -1.5530 c3        1 MOL      0.007115
    145 C46         7.0670    2.2470   -2.8540 c3        1 MOL     -0.023135
    146 C47         8.3110    3.1090   -2.6920 c3        1 MOL     -0.027934
    147 C48         9.0860    3.2270   -3.9790 c3        1 MOL     -0.013272
    148 N13        10.4210    3.8950   -3.8270 n4        1 MOL     -0.214950
    149 H67         6.1050   -0.4550   -1.4900 hn        1 MOL      0.203823
    150 H68         7.8590    1.5440   -0.3280 h1        1 MOL      0.057466
    151 H69         6.0880    3.1650   -1.2110 hc        1 MOL      0.005898
    152 H70         5.2130    1.7590   -1.7180 hc        1 MOL      0.005898
    153 H71         6.4190    2.7270   -3.5880 hc        1 MOL      0.023734
    154 H72         7.3870    1.2450   -3.1610 hc        1 MOL      0.023734
    155 H73         8.9070    2.9860   -1.7880 hc        1 MOL      0.046987
    156 H74         7.9980    4.1160   -2.4380 hc        1 MOL      0.046987
    157 H75         8.4910    3.6540   -4.7830 hx        1 MOL      0.086083
    158 H76         9.3720    2.2230   -4.2880 hx        1 MOL      0.086083
    159 H77        10.3650    4.8620   -3.5600 hn        1 MOL      0.254213
    160 H78        10.9470    3.4290   -3.1060 hn        1 MOL      0.254213
    161 H79        10.8860    3.9110   -4.7270 hn        1 MOL      0.254213
    162 N14         4.8460    0.9780    1.0670 n         1 MOL     -0.063931
    163 C49         4.0050    1.0180    2.2430 c3        1 MOL     -0.116173
    164 C50         4.6020    0.1450    3.3950 c         1 MOL      0.451324
    165 O22         4.3670    0.4610    4.5500 o         1 MOL     -0.545246
    166 C51         2.5360    0.4950    1.8910 c3        1 MOL     -0.049269
    167 C52         1.7820    1.5420    1.1200 c3        1 MOL     -0.084213
    168 C53         0.5310    0.9810    0.3200 c         1 MOL      0.573447
    169 O23         0.6800   -0.0760   -0.3440 o         1 MOL     -0.600830
    170 O24        -0.5390    1.6320    0.2320 o         1 MOL     -0.600830
    171 H80         4.4550    0.7520    0.1700 hn        1 MOL      0.109196
    172 H81         3.9700    2.0250    2.6640 h1        1 MOL      0.102946
    173 H82         2.0780    0.3230    2.8670 hc        1 MOL      0.103649
    174 H83         2.5190   -0.4220    1.3150 hc        1 MOL      0.103649
    175 H84         2.5190    1.8110    0.3630 hc        1 MOL      0.019769
    176 H85         1.6830    2.4770    1.6690 hc        1 MOL      0.019769
    177 N15         5.4620   -0.7980    3.0990 n         1 MOL     -0.078633
    178 C54         5.9580   -1.6510    4.1270 c3        1 MOL     -0.232996
    179 H86         7.0420   -1.7270    4.0440 h1        1 MOL      0.082213
    180 H87         5.6960   -1.2360    5.1010 h1        1 MOL      0.082213
    181 H88         5.5160   -2.6420    4.0230 h1        1 MOL      0.082213
    182 H89         5.4910   -1.2040    2.1650 hn        1 MOL      0.192240
    183 Ca1        -1.8720    0.0730   -1.2510 Ca        1 MOL      1.693247
    184 O25        -0.9240   -1.8620   -2.9530 oh        1 MOL     -0.890291
    185 H90        -1.5150   -2.5530   -3.2350 ho        1 MOL      0.407052
    186 H91        -0.3720   -1.6860   -3.7250 ho        1 MOL      0.407052
    187 O26        -0.3710    1.3590   -3.1310 oh        1 MOL     -0.890291
    188 H92        -1.0280    2.0600   -3.2220 ho        1 MOL      0.407052
    189 H93        -0.2230    1.0470   -4.0190 ho        1 MOL      0.407052
@<TRIPOS>BOND
     1    1    2 1   
     2    1    4 1   
     3    1    5 1   
     4    1    6 1   
     5    2    3 2   
     6    2    7 1   
     7    7    8 1   
     8    7   15 1   
     9    8    9 1   
    10    8   11 1   
    11    8   16 1   
    12    9   10 2   
    13    9   19 1   
    14   11   12 1   
    15   11   17 1   
    16   11   18 1   
    17   12   13 1   
    18   12   14 1   
    19   19   20 1   
    20   19   28 1   
    21   20   21 1   
    22   20   23 1   
    23   20   29 1   
    24   21   22 2   
    25   21   41 1   
    26   23   24 1   
    27   23   30 1   
    28   23   31 1   
    29   24   25 1   
    30   24   32 1   
    31   24   33 1   
    32   25   26 1   
    33   25   34 1   
    34   25   35 1   
    35   26   27 1   
    36   26   36 1   
    37   26   37 1   
    38   27   38 1   
    39   27   39 1   
    40   27   40 1   
    41   41   42 1   
    42   41   49 1   
    43   42   43 1   
    44   42   45 1   
    45   42   50 1   
    46   43   44 2   
    47   43   53 1   
    48   45   46 1   
    49   45   51 1   
    50   45   52 1   
    51   46   47 1   
    52   46   48 1   
    53   53   54 1   
    54   53   57 1   
    55   54   55 1   
    56   54   58 1   
    57   54   59 1   
    58   55   56 2   
    59   55   60 1   
    60   60   61 1   
    61   60   68 1   
    62   61   62 1   
    63   61   64 1   
    64   61   69 1   
    65   62   63 2   
    66   62   72 1   
    67   64   65 1   
    68   64   70 1   
    69   64   71 1   
    70   65   66 1   
    71   65   67 1   
    72   72   73 1   
    73   72   76 1   
    74   73   74 1   
    75   73   77 1   
    76   73   78 1   
    77   74   75 2   
    78   74   79 1   
    79   79   80 1   
    80   79   86 1   
    81   80   81 1   
    82   80   83 1   
    83   80   87 1   
    84   81   82 2   
    85   81   93 1   
    86   83   84 1   
    87   83   85 1   
    88   83   88 1   
    89   84   90 1   
    90   84   91 1   
    91   84   92 1   
    92   85   89 1   
    93   93   94 1   
    94   93  101 1   
    95   94   95 1   
    96   94   97 1   
    97   94  102 1   
    98   95   96 2   
    99   95  112 1   
   100   97   98 1   
   101   97   99 1   
   102   97  103 1   
   103   98  100 1   
   104   98  104 1   
   105   98  105 1   
   106   99  106 1   
   107   99  107 1   
   108   99  108 1   
   109  100  109 1   
   110  100  110 1   
   111  100  111 1   
   112  112  113 1   
   113  112  119 1   
   114  113  114 1   
   115  113  116 1   
   116  113  120 1   
   117  114  115 2   
   118  114  126 1   
   119  116  117 1   
   120  116  118 1   
   121  116  121 1   
   122  117  123 1   
   123  117  124 1   
   124  117  125 1   
   125  118  122 1   
   126  126  127 1   
   127  126  133 1   
   128  127  128 1   
   129  127  130 1   
   130  127  134 1   
   131  128  129 2   
   132  128  140 1   
   133  130  131 1   
   134  130  132 1   
   135  130  135 1   
   136  131  137 1   
   137  131  138 1   
   138  131  139 1   
   139  132  136 1   
   140  140  141 1   
   141  140  149 1   
   142  141  142 1   
   143  141  144 1   
   144  141  150 1   
   145  142  143 2   
   146  142  162 1   
   147  144  145 1   
   148  144  151 1   
   149  144  152 1   
   150  145  146 1   
   151  145  153 1   
   152  145  154 1   
   153  146  147 1   
   154  146  155 1   
   155  146  156 1   
   156  147  148 1   
   157  147  157 1   
   158  147  158 1   
   159  148  159 1   
   160  148  160 1   
   161  148  161 1   
   162  162  163 1   
   163  162  171 1   
   164  163  164 1   
   165  163  166 1   
   166  163  172 1   
   167  164  165 2   
   168  164  177 1   
   169  166  167 1   
   170  166  173 1   
   171  166  174 1   
   172  167  168 1   
   173  167  175 1   
   174  167  176 1   
   175  168  169 1   
   176  168  170 1   
   177  177  178 1   
   178  177  182 1   
   179  178  179 1   
   180  178  180 1   
   181  178  181 1   
   182  184  185 1   
   183  184  186 1   
   184  187  188 1   
   185  187  189 1   
@<TRIPOS>SUBSTRUCTURE
     1 MOL         1 TEMP              0 ****  ****    0 ROOT
