@<TRIPOS>MOLECULE
MOL
  189   185     1     0     0
SMALL
resp


@<TRIPOS>ATOM
      1 C1         -0.6270    2.0520    6.3040 c3        1 MOL     -0.253159
      2 C2         -0.7160    1.8370    4.7390 c         1 MOL      0.738292
      3 O1          0.2210    2.2110    4.0830 o         1 MOL     -0.611987
      4 H1          0.3850    2.3590    6.5710 hc        1 MOL      0.058352
      5 H2         -1.3310    2.8260    6.6050 hc        1 MOL      0.058352
      6 H3         -0.8700    1.1200    6.8140 hc        1 MOL      0.058352
      7 N1         -1.7690    1.2750    4.1860 n         1 MOL     -0.602735
      8 C3         -2.2360    1.4360    2.8100 c3        1 MOL      0.028264
      9 C4         -2.5160    2.9240    2.4490 c         1 MOL      0.682204
     10 O2         -3.2150    3.6240    3.1950 o         1 MOL     -0.609020
     11 C5         -3.4830    0.5780    2.7390 c3        1 MOL     -0.114830
     12 C6         -4.0540    0.2770    1.3680 c         1 MOL      0.710393
     13 O3         -3.5590    0.7650    0.3150 o         1 MOL     -0.650515
     14 O4         -5.1240   -0.3940    1.2550 o         1 MOL     -0.650515
     15 H4         -2.4520    0.9380    4.8430 hn        1 MOL      0.315605
     16 H5         -1.4740    1.0690    2.1290 h1        1 MOL      0.019098
     17 H6         -4.3210    0.9880    3.3110 hc        1 MOL      0.038833
     18 H7         -3.1970   -0.3480    3.2250 hc        1 MOL      0.038833
     19 N2         -1.9710    3.3770    1.3240 n         1 MOL     -0.524405
     20 C7         -2.0760    4.7760    0.9010 c3        1 MOL      0.101911
     21 C8         -2.8490    4.9680   -0.3310 c         1 MOL      0.524807
     22 O5         -3.4480    6.0330   -0.3810 o         1 MOL     -0.607159
     23 C9         -0.6720    5.2840    0.6620 c3        1 MOL     -0.008680
     24 C10        -0.3150    6.2680    1.8340 c3        1 MOL      0.083237
     25 C11        -1.1300    7.6220    1.9620 c3        1 MOL     -0.423288
     26 C12        -1.0210    8.6260    0.8300 c3        1 MOL      0.211495
     27 N3         -2.1050    9.5880    0.9420 n4        1 MOL     -0.405080
     28 H8         -1.3110    2.7150    0.9190 hn        1 MOL      0.339441
     29 H9         -2.6380    5.3470    1.6300 h1        1 MOL      0.089925
     30 H10        -0.5880    5.8370   -0.2700 hc        1 MOL      0.020518
     31 H11         0.0440    4.4770    0.5610 hc        1 MOL      0.020518
     32 H12         0.6980    6.5800    1.5700 hc        1 MOL      0.037671
     33 H13        -0.2840    5.7800    2.8060 hc        1 MOL      0.037671
     34 H14        -0.6930    8.1150    2.8220 hc        1 MOL      0.124764
     35 H15        -2.1960    7.4100    2.0620 hc        1 MOL      0.124764
     36 H16        -1.1130    8.0790   -0.1120 hx        1 MOL      0.031034
     37 H17        -0.0850    9.1750    0.8530 hx        1 MOL      0.031034
     38 H18        -2.9440    9.0600    0.7270 hn        1 MOL      0.338321
     39 H19        -2.0870    9.9430    1.8870 hn        1 MOL      0.338321
     40 H20        -2.0740   10.3130    0.2390 hn        1 MOL      0.338321
     41 N4         -3.0660    3.9470   -1.1590 n         1 MOL     -0.280119
     42 C13        -4.0980    3.8750   -2.1700 c3        1 MOL     -0.051660
     43 C14        -5.4180    3.0430   -1.9730 c         1 MOL      0.557010
     44 O6         -6.2950    3.0380   -2.7960 o         1 MOL     -0.516296
     45 C15        -3.4560    3.4180   -3.5060 c3        1 MOL     -0.351237
     46 C16        -2.6760    2.1690   -3.3720 c         1 MOL      0.863263
     47 O7         -2.6620    1.4690   -2.2920 o         1 MOL     -0.717700
     48 O8         -1.8550    1.9440   -4.2960 o         1 MOL     -0.717700
     49 H21        -2.7380    3.0360   -0.8620 hn        1 MOL      0.147089
     50 H22        -4.3890    4.9200   -2.2820 h1        1 MOL      0.079450
     51 H23        -2.8000    4.2010   -3.8950 hc        1 MOL      0.098011
     52 H24        -4.2570    3.1610   -4.1990 hc        1 MOL      0.098011
     53 N5         -5.5670    2.4380   -0.8290 n         1 MOL     -0.388967
     54 C17        -6.8880    1.7830   -0.3900 c3        1 MOL     -0.023390
     55 C18        -7.3580    0.6030   -1.2230 c         1 MOL      0.500441
     56 O9         -8.4380    0.6540   -1.7670 o         1 MOL     -0.560721
     57 H25        -4.8090    2.1110   -0.2480 hn        1 MOL      0.269550
     58 H26        -7.6200    2.5840   -0.4180 h1        1 MOL      0.054991
     59 H27        -6.9370    1.5000    0.6680 h1        1 MOL      0.054991
     60 N6         -6.5440   -0.4410   -1.2550 n         1 MOL     -0.157037
     61 C19        -6.7650   -1.6800   -1.9940 c3        1 MOL      0.170513
     62 C20        -7.0670   -2.8670   -1.0820 c         1 MOL      0.322288
     63 O10        -7.7570   -3.8050   -1.5210 o         1 MOL     -0.526071
     64 C21        -5.6210   -1.8390   -3.1010 c3        1 MOL     -0.379126
     65 C22        -4.2060   -1.7320   -2.5620 c         1 MOL      0.731691
     66 O11        -3.2800   -1.2710   -3.3410 o         1 MOL     -0.704936
     67 O12        -3.9690   -2.0140   -1.3830 o         1 MOL     -0.704936
     68 H28        -5.7060   -0.3740   -0.7060 hn        1 MOL      0.076209
     69 H29        -7.6860   -1.4210   -2.5190 h1        1 MOL      0.039141
     70 H30        -5.7190   -0.9860   -3.7820 hc        1 MOL      0.115443
     71 H31        -5.7770   -2.7760   -3.6330 hc        1 MOL      0.115443
     72 N7         -6.4290   -2.8010    0.1000 n         1 MOL     -0.202082
     73 C23        -6.3680   -3.9480    1.0350 c3        1 MOL     -0.081084
     74 C24        -5.0330   -4.6820    1.0580 c         1 MOL      0.514577
     75 O13        -4.8870   -5.6090    1.8130 o         1 MOL     -0.602948
     76 H32        -5.8840   -1.9610    0.2490 hn        1 MOL      0.153709
     77 H33        -7.1610   -4.6600    0.8000 h1        1 MOL      0.085099
     78 H34        -6.6010   -3.4900    1.9960 h1        1 MOL      0.085099
     79 N8         -4.0720   -4.2610    0.3110 n         1 MOL     -0.237012
     80 C25        -2.7100   -4.8880    0.4460 c3        1 MOL     -0.086953
     81 C26        -1.6170   -3.8500    0.7660 c         1 MOL      0.708381
     82 O14        -1.7990   -2.6310    0.5510 o         1 MOL     -0.672135
     83 C27        -2.3400   -5.7040   -0.8140 c3        1 MOL      0.300358
     84 C28        -2.8900   -7.1790   -0.7840 c3        1 MOL     -0.396930
     85 O15        -2.8980   -5.0790   -1.9520 oh        1 MOL     -0.639808
     86 H35        -4.1350   -3.5160   -0.3640 hn        1 MOL      0.284536
     87 H36        -2.6660   -5.6570    1.2110 h1        1 MOL      0.093971
     88 H37        -1.2510   -5.7010   -0.8920 h1        1 MOL      0.054301
     89 H38        -3.7890   -5.2930   -2.2180 ho        1 MOL      0.438102
     90 H39        -3.9730   -7.2060   -0.8020 hc        1 MOL      0.109592
     91 H40        -2.5200   -7.6600   -1.6950 hc        1 MOL      0.109592
     92 H41        -2.5100   -7.7520    0.0630 hc        1 MOL      0.109592
     93 N9         -0.4500   -4.3320    1.3310 n         1 MOL     -0.673004
     94 C29         0.7080   -3.4990    1.6170 c3        1 MOL      0.475123
     95 C30         1.8470   -3.9380    0.7080 c         1 MOL      0.302720
     96 O16         2.1380   -5.1460    0.5790 o         1 MOL     -0.523119
     97 C31         1.0770   -3.5410    3.0910 c3        1 MOL      0.039923
     98 C32        -0.0190   -3.0370    4.1030 c3        1 MOL     -0.295604
     99 C33         2.4850   -2.8140    3.3970 c3        1 MOL     -0.216565
    100 C34        -0.2130   -1.5810    3.9390 c3        1 MOL      0.285126
    101 H42        -0.4660   -5.3150    1.5090 hn        1 MOL      0.298288
    102 H43         0.4410   -2.4640    1.4060 h1        1 MOL     -0.054950
    103 H44         1.2670   -4.6060    3.2670 hc        1 MOL      0.003018
    104 H45         0.3410   -3.2020    5.1190 hc        1 MOL      0.073488
    105 H46        -0.9630   -3.5310    3.8650 hc        1 MOL      0.073488
    106 H47         3.3170   -3.3370    2.9330 hc        1 MOL      0.040034
    107 H48         2.5600   -1.8380    2.9060 hc        1 MOL      0.040034
    108 H49         2.5820   -2.7470    4.4790 hc        1 MOL      0.040034
    109 H50         0.6720   -0.9570    4.0560 hc        1 MOL     -0.048954
    110 H51        -0.5750   -1.3260    2.9380 hc        1 MOL     -0.048954
    111 H52        -0.9660   -1.3140    4.6770 hc        1 MOL     -0.048954
    112 N10         2.4600   -2.9220    0.0430 n         1 MOL     -0.105503
    113 C35         3.5320   -3.0160   -0.9430 c3        1 MOL      0.016985
    114 C36         4.9260   -2.6480   -0.3200 c         1 MOL      0.477921
    115 O17         5.0000   -2.3400    0.8950 o         1 MOL     -0.396675
    116 C37         3.2990   -2.0140   -2.1230 c3        1 MOL     -0.029761
    117 C38         1.9350   -2.0440   -2.7850 c3        1 MOL     -0.371884
    118 O18         3.5570   -0.7400   -1.6290 oh        1 MOL     -0.356545
    119 H53         2.0770   -1.9900    0.1710 hn        1 MOL      0.157748
    120 H54         3.7500   -4.0140   -1.3280 h1        1 MOL      0.078069
    121 H55         4.0320   -2.1600   -2.9170 h1        1 MOL      0.050713
    122 H56         3.1510   -0.1940   -2.3110 ho        1 MOL      0.341201
    123 H57         2.0510   -1.5190   -3.7300 hc        1 MOL      0.115611
    124 H58         1.6620   -3.0340   -3.1520 hc        1 MOL      0.115611
    125 H59         1.0920   -1.6410   -2.2080 hc        1 MOL      0.115611
    126 N11         5.9610   -2.7010   -1.1690 n         1 MOL     -0.430903
    127 C39         7.3700   -2.4140   -0.8120 c3        1 MOL     -0.019129
    128 C40         7.4870   -0.9430   -0.2180 c         1 MOL      0.203147
    129 O19         8.1720   -0.6610    0.7650 o         1 MOL     -0.439997
    130 C41         8.2860   -2.6290   -2.0100 c3        1 MOL      0.513454
    131 C42         9.7700   -2.6950   -1.7030 c3        1 MOL     -0.514290
    132 O20         8.0100   -3.8150   -2.6500 oh        1 MOL     -0.618105
    133 H60         5.7240   -2.8280   -2.1410 hn        1 MOL      0.231045
    134 H61         7.7170   -3.0280    0.0230 h1        1 MOL      0.133864
    135 H62         8.0780   -1.8210   -2.7170 h1        1 MOL     -0.071570
    136 H63         7.3890   -3.7450   -3.3680 ho        1 MOL      0.392379
    137 H64        10.0120   -1.7620   -1.2050 hc        1 MOL      0.146351
    138 H65         9.9010   -3.5830   -1.0900 hc        1 MOL      0.146351
    139 H66        10.3230   -2.8430   -2.6270 hc        1 MOL      0.146351
    140 N12         6.8250    0.0900   -0.7570 n         1 MOL     -0.108099
    141 C43         6.8360    1.4610   -0.2550 c3        1 MOL     -0.179447
    142 C44         6.0890    1.7040    1.0400 c         1 MOL      0.348683
    143 O21         6.6100    2.4580    1.9110 o         1 MOL     -0.478145
    144 C45         6.3650    2.4470   -1.3860 c3        1 MOL     -0.018181
    145 C46         7.2960    2.4660   -2.6370 c3        1 MOL      0.108905
    146 C47         6.9670    3.4930   -3.7180 c3        1 MOL      0.083065
    147 C48         8.2360    3.7430   -4.5160 c3        1 MOL      0.054789
    148 N13         8.2540    4.8420   -5.4140 n4        1 MOL     -0.371552
    149 H67         6.1560   -0.1530   -1.4730 hn        1 MOL      0.163355
    150 H68         7.8950    1.7130   -0.0880 h1        1 MOL      0.163220
    151 H69         6.3050    3.4930   -1.0710 hc        1 MOL      0.013667
    152 H70         5.3920    2.1170   -1.7450 hc        1 MOL      0.013667
    153 H71         7.2360    1.4430   -3.0060 hc        1 MOL     -0.047669
    154 H72         8.3170    2.6020   -2.2710 hc        1 MOL     -0.047669
    155 H73         6.4520    4.3690   -3.3400 hc        1 MOL     -0.006378
    156 H74         6.2160    3.0130   -4.3430 hc        1 MOL     -0.006378
    157 H75         8.4470    2.7960   -5.0180 hx        1 MOL      0.068724
    158 H76         9.0560    3.8110   -3.7930 hx        1 MOL      0.068724
    159 H77         7.9860    5.6510   -4.8720 hn        1 MOL      0.308247
    160 H78         9.1390    5.0870   -5.8190 hn        1 MOL      0.308247
    161 H79         7.6410    4.6420   -6.1980 hn        1 MOL      0.308247
    162 N14         4.9890    0.9390    1.1710 n         1 MOL     -0.021715
    163 C49         4.1060    1.0250    2.2560 c3        1 MOL     -0.284514
    164 C50         4.5360    0.2070    3.5350 c         1 MOL      0.456103
    165 O22         4.1850    0.5960    4.6750 o         1 MOL     -0.525262
    166 C51         2.6720    0.5410    1.7700 c3        1 MOL      0.228957
    167 C52         2.0050    1.3600    0.7560 c3        1 MOL     -0.038997
    168 C53         0.6490    0.7900    0.2040 c         1 MOL      0.647378
    169 O23         0.5140   -0.4650    0.0660 o         1 MOL     -0.713086
    170 O24        -0.3100    1.5060   -0.0870 o         1 MOL     -0.713086
    171 H80         4.6620    0.2320    0.5340 hn        1 MOL      0.158639
    172 H81         4.0600    2.0820    2.5380 h1        1 MOL      0.141103
    173 H82         1.9620    0.5060    2.5900 hc        1 MOL      0.031034
    174 H83         2.7090   -0.4530    1.3260 hc        1 MOL      0.031034
    175 H84         2.7590    1.2340   -0.0290 hc        1 MOL     -0.059994
    176 H85         1.9540    2.4090    1.0430 hc        1 MOL     -0.059994
    177 N15         5.3330   -0.8380    3.2740 n         1 MOL     -0.104003
    178 C54         6.0830   -1.6560    4.2610 c3        1 MOL     -0.415856
    179 H86         6.7080   -1.0040    4.8720 h1        1 MOL      0.145383
    180 H87         5.3800   -2.1880    4.9020 h1        1 MOL      0.145383
    181 H88         6.7130   -2.3740    3.7360 h1        1 MOL      0.145383
    182 H89         5.4170   -1.1890    2.3280 hn        1 MOL      0.182879
    183 Ca1        -1.7500   -0.6100   -1.1540 Ca        1 MOL      1.787048
    184 O25        -0.3730   -0.1010   -3.4590 oh        1 MOL     -0.810241
    185 H90        -0.6860    0.6690   -3.9480 ho        1 MOL      0.374717
    186 H91         0.4970   -0.2670   -3.8210 ho        1 MOL      0.374717
    187 O26        -1.0710   -3.0390   -2.1430 oh        1 MOL     -0.810241
    188 H92        -1.6190   -3.8200   -2.1980 ho        1 MOL      0.374717
    189 H93        -0.8770   -2.8120   -3.0520 ho        1 MOL      0.374717
@<TRIPOS>BOND
     1    1    2 1   
     2    1    4 1   
     3    1    5 1   
     4    1    6 1   
     5    2    3 2   
     6    2    7 1   
     7    7    8 1   
     8    7   15 1   
     9    8    9 1   
    10    8   11 1   
    11    8   16 1   
    12    9   10 2   
    13    9   19 1   
    14   11   12 1   
    15   11   17 1   
    16   11   18 1   
    17   12   13 1   
    18   12   14 1   
    19   19   20 1   
    20   19   28 1   
    21   20   21 1   
    22   20   23 1   
    23   20   29 1   
    24   21   22 2   
    25   21   41 1   
    26   23   24 1   
    27   23   30 1   
    28   23   31 1   
    29   24   25 1   
    30   24   32 1   
    31   24   33 1   
    32   25   26 1   
    33   25   34 1   
    34   25   35 1   
    35   26   27 1   
    36   26   36 1   
    37   26   37 1   
    38   27   38 1   
    39   27   39 1   
    40   27   40 1   
    41   41   42 1   
    42   41   49 1   
    43   42   43 1   
    44   42   45 1   
    45   42   50 1   
    46   43   44 2   
    47   43   53 1   
    48   45   46 1   
    49   45   51 1   
    50   45   52 1   
    51   46   47 1   
    52   46   48 1   
    53   53   54 1   
    54   53   57 1   
    55   54   55 1   
    56   54   58 1   
    57   54   59 1   
    58   55   56 2   
    59   55   60 1   
    60   60   61 1   
    61   60   68 1   
    62   61   62 1   
    63   61   64 1   
    64   61   69 1   
    65   62   63 2   
    66   62   72 1   
    67   64   65 1   
    68   64   70 1   
    69   64   71 1   
    70   65   66 1   
    71   65   67 1   
    72   72   73 1   
    73   72   76 1   
    74   73   74 1   
    75   73   77 1   
    76   73   78 1   
    77   74   75 2   
    78   74   79 1   
    79   79   80 1   
    80   79   86 1   
    81   80   81 1   
    82   80   83 1   
    83   80   87 1   
    84   81   82 2   
    85   81   93 1   
    86   83   84 1   
    87   83   85 1   
    88   83   88 1   
    89   84   90 1   
    90   84   91 1   
    91   84   92 1   
    92   85   89 1   
    93   93   94 1   
    94   93  101 1   
    95   94   95 1   
    96   94   97 1   
    97   94  102 1   
    98   95   96 2   
    99   95  112 1   
   100   97   98 1   
   101   97   99 1   
   102   97  103 1   
   103   98  100 1   
   104   98  104 1   
   105   98  105 1   
   106   99  106 1   
   107   99  107 1   
   108   99  108 1   
   109  100  109 1   
   110  100  110 1   
   111  100  111 1   
   112  112  113 1   
   113  112  119 1   
   114  113  114 1   
   115  113  116 1   
   116  113  120 1   
   117  114  115 2   
   118  114  126 1   
   119  116  117 1   
   120  116  118 1   
   121  116  121 1   
   122  117  123 1   
   123  117  124 1   
   124  117  125 1   
   125  118  122 1   
   126  126  127 1   
   127  126  133 1   
   128  127  128 1   
   129  127  130 1   
   130  127  134 1   
   131  128  129 2   
   132  128  140 1   
   133  130  131 1   
   134  130  132 1   
   135  130  135 1   
   136  131  137 1   
   137  131  138 1   
   138  131  139 1   
   139  132  136 1   
   140  140  141 1   
   141  140  149 1   
   142  141  142 1   
   143  141  144 1   
   144  141  150 1   
   145  142  143 2   
   146  142  162 1   
   147  144  145 1   
   148  144  151 1   
   149  144  152 1   
   150  145  146 1   
   151  145  153 1   
   152  145  154 1   
   153  146  147 1   
   154  146  155 1   
   155  146  156 1   
   156  147  148 1   
   157  147  157 1   
   158  147  158 1   
   159  148  159 1   
   160  148  160 1   
   161  148  161 1   
   162  162  163 1   
   163  162  171 1   
   164  163  164 1   
   165  163  166 1   
   166  163  172 1   
   167  164  165 2   
   168  164  177 1   
   169  166  167 1   
   170  166  173 1   
   171  166  174 1   
   172  167  168 1   
   173  167  175 1   
   174  167  176 1   
   175  168  169 1   
   176  168  170 1   
   177  177  178 1   
   178  177  182 1   
   179  178  179 1   
   180  178  180 1   
   181  178  181 1   
   182  184  185 1   
   183  184  186 1   
   184  187  188 1   
   185  187  189 1   
@<TRIPOS>SUBSTRUCTURE
     1 MOL         1 TEMP              0 ****  ****    0 ROOT
