@<TRIPOS>MOLECULE
MOL
  175   173     1     0     0
SMALL
resp


@<TRIPOS>ATOM
      1 C1          0.5530    4.1940    5.3760 c3        1 MOL     -0.436967
      2 C2         -0.0480    4.2560    3.8880 c         1 MOL      0.647213
      3 O1          0.6950    4.4350    2.8800 o         1 MOL     -0.529828
      4 H1          1.3610    4.9190    5.4730 hc        1 MOL      0.109078
      5 H2         -0.2320    4.4280    6.0950 hc        1 MOL      0.109078
      6 H3          0.9380    3.1930    5.5710 hc        1 MOL      0.109078
      7 N1         -1.3580    3.9350    3.8080 n         1 MOL     -0.598849
      8 C3         -2.0450    3.5480    2.5840 c3        1 MOL     -0.004721
      9 C4         -2.3550    4.7690    1.7320 c         1 MOL      0.790934
     10 O2         -2.4570    5.8610    2.2340 o         1 MOL     -0.604103
     11 C5         -3.3300    2.8420    2.9880 c3        1 MOL     -0.432600
     12 C6         -4.0470    2.1120    1.8710 c         1 MOL      0.964679
     13 O3         -3.5440    1.8520    0.7570 o         1 MOL     -0.759556
     14 O4         -5.2020    1.7110    2.1640 o         1 MOL     -0.759556
     15 H4         -1.9000    3.9680    4.6620 hn        1 MOL      0.338175
     16 H5         -1.3450    2.8520    2.1200 h1        1 MOL      0.256222
     17 H6         -3.9890    3.5880    3.4320 hc        1 MOL      0.082238
     18 H7         -3.1600    2.0590    3.7310 hc        1 MOL      0.082238
     19 N2         -2.3230    4.5780    0.4230 n         1 MOL     -0.795966
     20 C7         -2.3780    5.5920   -0.6970 c3        1 MOL      0.434358
     21 C8         -3.1950    5.1310   -1.8240 c         1 MOL      0.350012
     22 O5         -3.3350    5.8720   -2.7840 o         1 MOL     -0.549562
     23 C9         -0.9050    5.6070   -1.2180 c3        1 MOL     -0.449558
     24 H8         -2.0090    3.6600    0.1480 hn        1 MOL      0.334244
     25 H9         -2.7490    6.5730   -0.4050 h1        1 MOL      0.006911
     26 H10        -0.2520    5.7150   -0.3660 hc        1 MOL      0.126567
     27 H11        -0.7900    4.6500   -1.7450 hc        1 MOL      0.126567
     28 H12        -0.7760    6.4350   -1.9140 hc        1 MOL      0.126567
     29 N3         -3.7270    3.8950   -1.8400 n         1 MOL     -0.339665
     30 C10        -4.5430    3.4080   -2.8580 c3        1 MOL      0.170990
     31 C11        -5.8170    2.6720   -2.4570 c         1 MOL      0.398177
     32 O6         -6.6180    2.3790   -3.3200 o         1 MOL     -0.533544
     33 C12        -3.7190    2.5240   -3.8030 c3        1 MOL     -0.130256
     34 C13        -2.9960    1.3580   -3.1620 c         1 MOL      0.775317
     35 O7         -1.9720    0.8770   -3.6980 o         1 MOL     -0.743813
     36 O8         -3.3630    0.9160   -2.0830 o         1 MOL     -0.743813
     37 H13        -3.3800    3.2670   -1.1220 hn        1 MOL      0.251481
     38 H14        -4.8630    4.2340   -3.4960 h1        1 MOL      0.046977
     39 H15        -2.9900    3.1740   -4.2850 hc        1 MOL      0.016518
     40 H16        -4.4360    2.1300   -4.5240 hc        1 MOL      0.016518
     41 N4         -6.0180    2.3830   -1.1500 n         1 MOL     -0.247412
     42 C14        -7.2090    1.7250   -0.6350 c3        1 MOL     -0.160226
     43 C15        -7.2740    0.2120   -0.9580 c         1 MOL      0.516464
     44 O9         -8.3200   -0.4170   -0.6590 o         1 MOL     -0.636899
     45 H17        -5.3250    2.6850   -0.4830 hn        1 MOL      0.145943
     46 H18        -8.1130    2.2880   -0.8410 h1        1 MOL      0.115120
     47 H19        -7.0730    1.7250    0.4460 h1        1 MOL      0.115120
     48 N5         -6.2550   -0.4290   -1.4580 n         1 MOL     -0.298690
     49 C16        -6.3140   -1.8380   -1.9530 c3        1 MOL      0.247406
     50 C17        -6.2550   -2.9790   -0.8590 c         1 MOL      0.322287
     51 O10        -5.9210   -4.1130   -1.1340 o         1 MOL     -0.492608
     52 C18        -5.3750   -2.0290   -3.1280 c3        1 MOL     -0.430537
     53 C19        -3.9150   -2.1590   -2.5930 c         1 MOL      0.590677
     54 N6         -2.9270   -2.1950   -3.4200 n         1 MOL     -0.498440
     55 O11        -3.6290   -2.0720   -1.4370 o         1 MOL     -0.450198
     56 H20        -5.3760    0.0200   -1.6680 hn        1 MOL      0.167491
     57 H21        -7.3290   -1.9300   -2.3420 h1        1 MOL      0.055451
     58 H22        -5.4430   -1.1540   -3.7730 hc        1 MOL      0.122579
     59 H23        -5.7030   -2.9020   -3.6780 hc        1 MOL      0.122579
     60 H24        -3.1310   -2.2670   -4.4040 hn        1 MOL      0.286365
     61 H25        -1.9560   -2.2320   -3.1470 hn        1 MOL      0.286365
     62 N7         -6.2780   -2.5950    0.3960 n         1 MOL     -0.171303
     63 C20        -6.3320   -3.5010    1.5640 c3        1 MOL     -0.319092
     64 C21        -5.1210   -4.3210    1.9200 c         1 MOL      0.497508
     65 O12        -5.1990   -5.2050    2.8110 o         1 MOL     -0.560743
     66 H26        -6.4640   -1.6190    0.5560 hn        1 MOL      0.247611
     67 H27        -7.2080   -4.0880    1.2800 h1        1 MOL      0.140489
     68 H28        -6.6570   -2.9070    2.4160 h1        1 MOL      0.140489
     69 N8         -4.0400   -4.1080    1.1210 n         1 MOL      0.173414
     70 C22        -2.7240   -4.6750    1.2980 c3        1 MOL     -0.713084
     71 C23        -1.6320   -3.5450    1.3070 c         1 MOL      0.728297
     72 O13        -1.6370   -2.6130    0.4920 o         1 MOL     -0.568964
     73 C24        -2.3470   -5.6440    0.1310 c3        1 MOL      0.805517
     74 C25        -3.2180   -6.9400    0.0930 c3        1 MOL     -0.569273
     75 O14        -2.4740   -4.9590   -1.1080 oh        1 MOL     -0.617829
     76 H29        -4.0990   -3.4300    0.3750 hn        1 MOL      0.006672
     77 H30        -2.7740   -5.1240    2.2910 h1        1 MOL      0.166668
     78 H31        -1.3380   -6.0240    0.2360 h1        1 MOL     -0.078573
     79 H32        -2.5690   -4.0240   -0.8990 ho        1 MOL      0.293290
     80 H33        -3.9500   -6.9620   -0.7100 hc        1 MOL      0.130286
     81 H34        -2.4720   -7.7010   -0.1350 hc        1 MOL      0.130286
     82 H35        -3.6930   -7.0430    1.0740 hc        1 MOL      0.130286
     83 N9         -0.5160   -3.7200    2.0690 n         1 MOL     -0.474958
     84 C26         0.6030   -2.7800    1.9790 c3        1 MOL     -0.035205
     85 C27         1.5870   -3.2180    0.8450 c         1 MOL      0.422613
     86 O15         2.1610   -4.3540    0.7940 o         1 MOL     -0.559244
     87 C28         1.4060   -2.7370    3.2660 c3        1 MOL      0.224427
     88 C29         0.5950   -2.1440    4.5290 c3        1 MOL      0.069131
     89 C30         2.7290   -1.8740    3.1440 c3        1 MOL     -0.296040
     90 C31         1.2180   -2.3840    5.8590 c3        1 MOL     -0.165227
     91 H36        -0.4380   -4.5540    2.6330 hn        1 MOL      0.301046
     92 H37         0.2560   -1.7950    1.6900 h1        1 MOL      0.025196
     93 H38         1.6600   -3.7780    3.4630 hc        1 MOL     -0.023690
     94 H39        -0.3410   -2.7000    4.5340 hc        1 MOL     -0.029529
     95 H40         0.4140   -1.0910    4.3180 hc        1 MOL     -0.029529
     96 H41         3.4200   -1.9100    3.9860 hc        1 MOL      0.063167
     97 H42         3.3520   -2.2310    2.3290 hc        1 MOL      0.063167
     98 H43         2.3660   -0.8520    2.9930 hc        1 MOL      0.063167
     99 H44         2.1930   -1.9140    5.7930 hc        1 MOL      0.032084
    100 H45         0.7170   -1.8870    6.6860 hc        1 MOL      0.032084
    101 H46         1.4910   -3.4180    6.0590 hc        1 MOL      0.032084
    102 N10         1.9150   -2.2330   -0.0170 n         1 MOL     -0.219852
    103 C32         2.7980   -2.1850   -1.1490 c3        1 MOL      0.084817
    104 C33         4.1810   -1.7270   -0.7630 c         1 MOL      0.332220
    105 O16         4.4420   -1.1280    0.2770 o         1 MOL     -0.300754
    106 C34         2.0360   -1.3600   -2.2670 c3        1 MOL     -0.404205
    107 C35         0.5500   -1.8180   -2.4890 c         1 MOL      0.801168
    108 O17        -0.3640   -1.2220   -1.8210 o         1 MOL     -0.678995
    109 O18         0.3340   -2.7560   -3.3100 o         1 MOL     -0.678995
    110 H47         1.4880   -1.3350    0.2030 hn        1 MOL      0.293475
    111 H48         2.8800   -3.1690   -1.6220 h1        1 MOL      0.079461
    112 H49         2.6520   -1.4980   -3.1580 hc        1 MOL      0.089868
    113 H50         2.0410   -0.3010   -2.0100 hc        1 MOL      0.089868
    114 N11         5.1700   -1.8820   -1.6110 n         1 MOL     -0.463341
    115 C36         6.5190   -1.5510   -1.3390 c3        1 MOL      0.246984
    116 C37         6.7770   -0.0400   -1.1460 c         1 MOL      0.330495
    117 O19         7.4500    0.2770   -0.1420 o         1 MOL     -0.495606
    118 C38         7.5220   -2.1480   -2.3370 c3        1 MOL     -0.097946
    119 C39         8.9910   -1.9360   -2.0290 ca        1 MOL     -0.025691
    120 C40         9.5740   -2.7870   -1.0690 ca        1 MOL     -0.094414
    121 C41         9.7030   -0.7830   -2.4680 ca        1 MOL     -0.094414
    122 C42        10.9190   -2.6250   -0.6880 ca        1 MOL     -0.168935
    123 C43        10.9200   -0.5690   -1.8770 ca        1 MOL     -0.168935
    124 C44        11.5660   -1.4510   -0.9740 ca        1 MOL     -0.019086
    125 H51         4.9620   -2.1470   -2.5620 hn        1 MOL      0.271421
    126 H52         6.7880   -2.1080   -0.4350 h1        1 MOL      0.069974
    127 H53         7.3170   -1.7370   -3.3280 hc        1 MOL      0.034708
    128 H54         7.2810   -3.2070   -2.3990 hc        1 MOL      0.034708
    129 H55         8.9990   -3.5680   -0.6010 ha        1 MOL      0.115590
    130 H56         9.4670   -0.1360   -3.3070 ha        1 MOL      0.115590
    131 H57        11.3880   -3.3540   -0.0480 ha        1 MOL      0.110914
    132 H58        11.4950    0.3310   -2.0150 ha        1 MOL      0.110914
    133 H59        12.5850   -1.3370   -0.6530 ha        1 MOL      0.079705
    134 N12         6.2100    0.9140   -1.9040 n         1 MOL     -0.011617
    135 C45         6.4590    2.2980   -1.5940 c3        1 MOL     -0.188762
    136 C46         5.6820    2.7800   -0.3160 c         1 MOL      0.419987
    137 O20         5.9710    3.8840    0.1300 o         1 MOL     -0.526878
    138 C47         6.0940    3.0400   -2.8650 c3        1 MOL      0.001240
    139 C48         5.0350    2.2410   -3.4700 c3        1 MOL      0.055206
    140 C49         5.3210    0.7960   -2.9750 c3        1 MOL     -0.084498
    141 H60         7.5340    2.3950   -1.4450 h1        1 MOL      0.117655
    142 H61         5.8580    4.0970   -2.8230 hc        1 MOL      0.028866
    143 H62         6.9220    2.9450   -3.5790 hc        1 MOL      0.028866
    144 H63         4.0560    2.5020   -3.0780 hc        1 MOL      0.008816
    145 H64         5.0590    2.2740   -4.5550 hc        1 MOL      0.008816
    146 H65         4.3530    0.3480   -2.7440 h1        1 MOL      0.030970
    147 H66         5.8270    0.1920   -3.7410 h1        1 MOL      0.030970
    148 N13         4.7430    2.0310    0.2170 n         1 MOL     -0.137096
    149 C50         4.0310    2.3590    1.4800 c3        1 MOL     -0.144851
    150 C51         4.7880    1.7430    2.6500 c         1 MOL      0.424362
    151 O21         4.7270    2.2340    3.7890 o         1 MOL     -0.555095
    152 C52         2.6210    1.7810    1.4890 c3        1 MOL     -0.039886
    153 C53         1.6550    2.2890    0.4420 c3        1 MOL     -0.139082
    154 C54         0.2670    1.6010    0.4790 c         1 MOL      0.448221
    155 O22        -0.7450    2.1010   -0.0990 o         1 MOL     -0.654975
    156 O23         0.0790    0.5180    1.0900 o         1 MOL     -0.654975
    157 H67         4.4790    1.2000   -0.2910 hn        1 MOL      0.224498
    158 H68         3.9900    3.4360    1.6560 h1        1 MOL      0.141265
    159 H69         2.1880    1.9650    2.4710 hc        1 MOL      0.077909
    160 H70         2.6720    0.7110    1.3060 hc        1 MOL      0.077909
    161 H71         2.1030    2.1600   -0.5460 hc        1 MOL      0.076064
    162 H72         1.6320    3.3470    0.6760 hc        1 MOL      0.076064
    163 N14         5.5460    0.6360    2.4710 n         1 MOL     -0.009747
    164 C55         6.4820    0.0370    3.4320 c3        1 MOL     -0.168512
    165 H73         7.2250    0.7780    3.7240 h1        1 MOL      0.070935
    166 H74         5.9360   -0.2950    4.3140 h1        1 MOL      0.070935
    167 H75         6.9820   -0.8150    2.9700 h1        1 MOL      0.070935
    168 H76         5.4050    0.1660    1.5920 hn        1 MOL     -0.029764
    169 Ca1        -2.1550   -0.1240   -0.1870 Ca        1 MOL      1.726731
    170 O24        -1.8790   -0.1290    2.8940 oh        1 MOL     -0.897720
    171 H77        -0.9330   -0.0820    2.7760 ho        1 MOL      0.424984
    172 H78        -2.0320    0.2390    3.7550 ho        1 MOL      0.424984
    173 O25        -4.0040   -1.0920    1.5960 oh        1 MOL     -0.897720
    174 H79        -3.5210   -1.0460    2.4280 ho        1 MOL      0.424984
    175 H80        -4.8930   -0.8220    1.8170 ho        1 MOL      0.424984
@<TRIPOS>BOND
     1    1    2 1   
     2    1    4 1   
     3    1    5 1   
     4    1    6 1   
     5    2    3 2   
     6    2    7 1   
     7    7    8 1   
     8    7   15 1   
     9    8    9 1   
    10    8   11 1   
    11    8   16 1   
    12    9   10 2   
    13    9   19 1   
    14   11   12 1   
    15   11   17 1   
    16   11   18 1   
    17   12   13 1   
    18   12   14 1   
    19   19   20 1   
    20   19   24 1   
    21   20   21 1   
    22   20   23 1   
    23   20   25 1   
    24   21   22 2   
    25   21   29 1   
    26   23   26 1   
    27   23   27 1   
    28   23   28 1   
    29   29   30 1   
    30   29   37 1   
    31   30   31 1   
    32   30   33 1   
    33   30   38 1   
    34   31   32 2   
    35   31   41 1   
    36   33   34 1   
    37   33   39 1   
    38   33   40 1   
    39   34   35 1   
    40   34   36 1   
    41   41   42 1   
    42   41   45 1   
    43   42   43 1   
    44   42   46 1   
    45   42   47 1   
    46   43   44 2   
    47   43   48 1   
    48   48   49 1   
    49   48   56 1   
    50   49   50 1   
    51   49   52 1   
    52   49   57 1   
    53   50   51 2   
    54   50   62 1   
    55   52   53 1   
    56   52   58 1   
    57   52   59 1   
    58   53   54 1   
    59   53   55 2   
    60   54   60 1   
    61   54   61 1   
    62   62   63 1   
    63   62   66 1   
    64   63   64 1   
    65   63   67 1   
    66   63   68 1   
    67   64   65 2   
    68   64   69 1   
    69   69   70 1   
    70   69   76 1   
    71   70   71 1   
    72   70   73 1   
    73   70   77 1   
    74   71   72 2   
    75   71   83 1   
    76   73   74 1   
    77   73   75 1   
    78   73   78 1   
    79   74   80 1   
    80   74   81 1   
    81   74   82 1   
    82   75   79 1   
    83   83   84 1   
    84   83   91 1   
    85   84   85 1   
    86   84   87 1   
    87   84   92 1   
    88   85   86 2   
    89   85  102 1   
    90   87   88 1   
    91   87   89 1   
    92   87   93 1   
    93   88   90 1   
    94   88   94 1   
    95   88   95 1   
    96   89   96 1   
    97   89   97 1   
    98   89   98 1   
    99   90   99 1   
   100   90  100 1   
   101   90  101 1   
   102  102  103 1   
   103  102  110 1   
   104  103  104 1   
   105  103  106 1   
   106  103  111 1   
   107  104  105 2   
   108  104  114 1   
   109  106  107 1   
   110  106  112 1   
   111  106  113 1   
   112  107  108 1   
   113  107  109 1   
   114  114  115 1   
   115  114  125 1   
   116  115  116 1   
   117  115  118 1   
   118  115  126 1   
   119  116  117 2   
   120  116  134 1   
   121  118  119 1   
   122  118  127 1   
   123  118  128 1   
   124  119  120 ar  
   125  119  121 ar  
   126  120  122 ar  
   127  120  129 1   
   128  121  123 ar  
   129  121  130 1   
   130  122  124 ar  
   131  122  131 1   
   132  123  124 ar  
   133  123  132 1   
   134  124  133 1   
   135  134  135 1   
   136  134  140 1   
   137  135  136 1   
   138  135  138 1   
   139  135  141 1   
   140  136  137 2   
   141  136  148 1   
   142  138  139 1   
   143  138  142 1   
   144  138  143 1   
   145  139  140 1   
   146  139  144 1   
   147  139  145 1   
   148  140  146 1   
   149  140  147 1   
   150  148  149 1   
   151  148  157 1   
   152  149  150 1   
   153  149  152 1   
   154  149  158 1   
   155  150  151 2   
   156  150  163 1   
   157  152  153 1   
   158  152  159 1   
   159  152  160 1   
   160  153  154 1   
   161  153  161 1   
   162  153  162 1   
   163  154  155 1   
   164  154  156 1   
   165  163  164 1   
   166  163  168 1   
   167  164  165 1   
   168  164  166 1   
   169  164  167 1   
   170  170  171 1   
   171  170  172 1   
   172  173  174 1   
   173  173  175 1   
@<TRIPOS>SUBSTRUCTURE
     1 MOL         1 TEMP              0 ****  ****    0 ROOT
