@<TRIPOS>MOLECULE
MOL
  189   185     1     0     0
SMALL
resp


@<TRIPOS>ATOM
      1 C1          0.4940    2.0320    5.7050 c3        1 MOL     -0.290092
      2 C2         -0.0330    1.7610    4.2570 c         1 MOL      0.517270
      3 O1          0.6810    1.8850    3.2390 o         1 MOL     -0.526228
      4 H1         -0.3500    2.1060    6.3910 hc        1 MOL      0.079142
      5 H2          1.1430    1.2130    6.0160 hc        1 MOL      0.079142
      6 H3          1.0560    2.9660    5.7190 hc        1 MOL      0.079142
      7 N1         -1.2940    1.4680    4.1590 n         1 MOL     -0.428773
      8 C3         -1.9890    1.2720    2.8390 c3        1 MOL      0.153842
      9 C4         -2.1830    2.6420    2.1160 c         1 MOL      0.278483
     10 O2         -3.2640    3.2330    2.2810 o         1 MOL     -0.455650
     11 C5         -3.2570    0.5610    3.0030 c3        1 MOL     -0.121922
     12 C6         -4.0240    0.2110    1.7360 c         1 MOL      0.727626
     13 O3         -5.1820   -0.2610    1.8780 o         1 MOL     -0.661619
     14 O4         -3.4490    0.3430    0.6160 o         1 MOL     -0.661619
     15 H4         -1.7500    1.2280    5.0240 hn        1 MOL      0.312699
     16 H5         -1.3280    0.6430    2.2440 h1        1 MOL     -0.047631
     17 H6         -3.9400    1.2090    3.5530 hc        1 MOL      0.032761
     18 H7         -3.0900   -0.2750    3.6820 hc        1 MOL      0.032761
     19 N2         -1.1520    3.1960    1.4700 n         1 MOL     -0.082477
     20 C7         -1.1730    4.5620    1.0010 c3        1 MOL     -0.038242
     21 C8         -2.1490    4.9370   -0.0140 c         1 MOL      0.425881
     22 O5         -2.2840    6.1230   -0.3410 o         1 MOL     -0.576319
     23 C9          0.2400    4.9810    0.5280 c3        1 MOL     -0.105890
     24 C10         1.4190    4.6720    1.4130 c3        1 MOL     -0.015840
     25 C11         1.3930    5.2340    2.8330 c3        1 MOL     -0.177873
     26 C12         1.5510    6.7610    2.7460 c3        1 MOL      0.163705
     27 N3          1.5530    7.3450    4.1630 n4        1 MOL     -0.473758
     28 H8         -0.2990    2.6920    1.2910 hn        1 MOL      0.285111
     29 H9         -1.4150    5.2070    1.8420 h1        1 MOL      0.045649
     30 H10         0.2510    6.0580    0.3270 hc        1 MOL      0.047906
     31 H11         0.3570    4.4140   -0.3990 hc        1 MOL      0.047906
     32 H12         2.3340    5.0380    0.9390 hc        1 MOL      0.056020
     33 H13         1.6150    3.6080    1.5060 hc        1 MOL      0.056020
     34 H14         2.2210    4.7260    3.3280 hc        1 MOL      0.071168
     35 H15         0.4820    4.9500    3.3470 hc        1 MOL      0.071168
     36 H16         0.6830    7.1650    2.2460 hx        1 MOL      0.062459
     37 H17         2.4230    7.0130    2.1340 hx        1 MOL      0.062459
     38 H18         2.3410    7.0030    4.6890 hn        1 MOL      0.350816
     39 H19         1.5110    8.3510    4.0490 hn        1 MOL      0.350816
     40 H20         0.7800    6.9700    4.6930 hn        1 MOL      0.350816
     41 N4         -2.8730    4.0260   -0.6060 n         1 MOL     -0.099661
     42 C13        -3.9280    4.2570   -1.6360 c3        1 MOL      0.014843
     43 C14        -5.2520    3.6520   -1.3370 c         1 MOL      0.370415
     44 O6         -6.1470    3.8910   -2.0990 o         1 MOL     -0.479241
     45 C15        -3.4160    3.9490   -3.0350 c3        1 MOL     -0.097443
     46 C16        -2.8250    2.5450   -3.2230 c         1 MOL      0.785055
     47 O7         -2.9470    1.7300   -2.2970 o         1 MOL     -0.716967
     48 O8         -2.0610    2.3640   -4.2420 o         1 MOL     -0.716967
     49 H21        -2.8890    3.1280   -0.1470 hn        1 MOL     -0.013968
     50 H22        -4.1520    5.3200   -1.7040 h1        1 MOL      0.088093
     51 H23        -2.7020    4.7420   -3.1990 hc        1 MOL      0.020075
     52 H24        -4.1990    4.0550   -3.7870 hc        1 MOL      0.020075
     53 N5         -5.5170    2.9470   -0.2450 n         1 MOL     -0.047338
     54 C17        -6.8130    2.5090    0.2490 c3        1 MOL     -0.275495
     55 C18        -7.4170    1.5000   -0.7540 c         1 MOL      0.587026
     56 O9         -8.4170    1.8140   -1.4020 o         1 MOL     -0.561971
     57 H25        -4.7140    2.8150    0.3520 hn        1 MOL      0.126574
     58 H26        -7.5200    3.3420    0.3450 h1        1 MOL      0.109105
     59 H27        -6.6090    2.0870    1.2310 h1        1 MOL      0.109105
     60 N6         -6.7530    0.3790   -0.8870 n         1 MOL     -0.295869
     61 C19        -7.1970   -0.7670   -1.7620 c3        1 MOL     -0.057637
     62 C20        -7.4370   -2.1310   -1.0920 c         1 MOL      0.495390
     63 O10        -7.9880   -3.0130   -1.6910 o         1 MOL     -0.526341
     64 C21        -6.2430   -0.7280   -2.9110 c3        1 MOL     -0.050052
     65 C22        -4.8100   -1.0990   -2.6650 c         1 MOL      0.664734
     66 O11        -4.4390   -1.8780   -1.7950 o         1 MOL     -0.694309
     67 O12        -3.9430   -0.6980   -3.4520 o         1 MOL     -0.694309
     68 H28        -6.0080    0.2980   -0.2050 hn        1 MOL      0.062435
     69 H29        -8.1990   -0.4820   -2.0630 h1        1 MOL      0.086785
     70 H30        -6.2110    0.2150   -3.4600 hc        1 MOL      0.047637
     71 H31        -6.6510   -1.4080   -3.6560 hc        1 MOL      0.047637
     72 N7         -6.9530   -2.3070    0.1160 n         1 MOL     -0.296043
     73 C23        -6.9610   -3.5490    0.7850 c3        1 MOL     -0.085343
     74 C24        -5.5920   -4.2040    1.1300 c         1 MOL      0.529715
     75 O13        -5.5910   -5.0870    2.0310 o         1 MOL     -0.590921
     76 H32        -6.4870   -1.5860    0.6450 hn        1 MOL      0.286348
     77 H33        -7.4080   -4.2070    0.0390 h1        1 MOL      0.070197
     78 H34        -7.5470   -3.4390    1.6920 h1        1 MOL      0.070197
     79 N8         -4.4690   -3.7470    0.5970 n         1 MOL     -0.187064
     80 C25        -3.1820   -4.4940    0.7410 c3        1 MOL     -0.287783
     81 C26        -1.9790   -3.5180    0.7630 c         1 MOL      0.767561
     82 O14        -2.1320   -2.3880    0.2870 o         1 MOL     -0.728840
     83 C27        -2.8180   -5.5530   -0.2770 c3        1 MOL      0.418486
     84 C28        -3.7050   -6.7190   -0.0950 c3        1 MOL     -0.415595
     85 O15        -2.9970   -5.0690   -1.5700 oh        1 MOL     -0.630462
     86 H35        -4.5220   -3.0110   -0.1020 hn        1 MOL      0.213789
     87 H36        -3.3010   -4.9980    1.7020 h1        1 MOL      0.119428
     88 H37        -1.8020   -5.8800   -0.0840 h1        1 MOL      0.051218
     89 H38        -3.9290   -4.8500   -1.6240 ho        1 MOL      0.418074
     90 H39        -3.4120   -7.5470   -0.7380 hc        1 MOL      0.103627
     91 H40        -3.6340   -7.1880    0.8890 hc        1 MOL      0.103627
     92 H41        -4.7470   -6.4580   -0.2480 hc        1 MOL      0.103627
     93 N9         -0.8770   -3.8350    1.4210 n         1 MOL     -0.590899
     94 C29         0.2550   -2.9140    1.5660 c3        1 MOL     -0.053429
     95 C30         1.5270   -3.5500    0.9340 c         1 MOL      0.441604
     96 O16         1.9770   -4.6930    1.2040 o         1 MOL     -0.543855
     97 C31         0.5510   -2.8090    3.0990 c3        1 MOL      0.208663
     98 C32        -0.6140   -2.1840    3.9710 c3        1 MOL      0.288442
     99 C33         1.6650   -1.7660    3.2620 c3        1 MOL     -0.526669
    100 C34        -0.3340   -2.3900    5.4890 c3        1 MOL     -0.235664
    101 H42        -0.7590   -4.7980    1.7090 hn        1 MOL      0.285966
    102 H43         0.0770   -1.9480    1.1190 h1        1 MOL      0.233297
    103 H44         0.9160   -3.7330    3.5260 hc        1 MOL      0.015195
    104 H45        -1.4490   -2.8660    3.7990 hc        1 MOL     -0.058896
    105 H46        -0.8360   -1.1260    3.8200 hc        1 MOL     -0.058896
    106 H47         1.8740   -1.6470    4.3300 hc        1 MOL      0.108230
    107 H48         2.5880   -2.1190    2.8070 hc        1 MOL      0.108230
    108 H49         1.3540   -0.7840    2.9270 hc        1 MOL      0.108230
    109 H50         0.5360   -1.8550    5.8710 hc        1 MOL      0.039333
    110 H51        -1.2210   -2.1810    6.0850 hc        1 MOL      0.039333
    111 H52        -0.0220   -3.4370    5.5490 hc        1 MOL      0.039333
    112 N10         2.1330   -2.7890   -0.0140 n         1 MOL     -0.104969
    113 C35         3.3860   -3.2470   -0.6600 c3        1 MOL      0.033368
    114 C36         4.6380   -2.8750    0.1340 c         1 MOL      0.298193
    115 O17         4.5770   -2.1810    1.1880 o         1 MOL     -0.336879
    116 C37         3.4990   -2.6600   -2.0700 c3        1 MOL      0.094341
    117 C38         2.1580   -2.6600   -2.8450 c3        1 MOL     -0.391290
    118 O18         3.8000   -1.3110   -1.9600 oh        1 MOL     -0.463314
    119 H53         1.6660   -1.9920   -0.4320 hn        1 MOL      0.161176
    120 H54         3.4310   -4.3370   -0.7240 h1        1 MOL      0.064325
    121 H55         4.3000   -3.0700   -2.6750 h1        1 MOL      0.058478
    122 H56         3.2580   -0.8150   -2.5830 ho        1 MOL      0.401920
    123 H57         1.6470   -3.6120   -2.7680 hc        1 MOL      0.112105
    124 H58         1.4520   -1.9170   -2.4550 hc        1 MOL      0.112105
    125 H59         2.3580   -2.3330   -3.8730 hc        1 MOL      0.112105
    126 N11         5.7720   -3.3780   -0.3650 n         1 MOL     -0.230578
    127 C39         7.1060   -3.0740    0.2160 c3        1 MOL     -0.090906
    128 C40         7.4490   -1.5750    0.0750 c         1 MOL      0.378156
    129 O19         8.0490   -1.0180    0.9890 o         1 MOL     -0.479345
    130 C41         8.1930   -3.7830   -0.5370 c3        1 MOL      0.333120
    131 C42         8.3730   -5.2240   -0.1660 c3        1 MOL     -0.405752
    132 O20         7.9700   -3.6620   -1.9370 oh        1 MOL     -0.637211
    133 H60         5.7960   -4.0330   -1.1460 hn        1 MOL      0.257089
    134 H61         7.2510   -3.3140    1.2660 h1        1 MOL      0.128552
    135 H62         9.1020   -3.2470   -0.2590 h1        1 MOL      0.040194
    136 H63         8.7830   -3.8610   -2.4260 ho        1 MOL      0.415541
    137 H64         9.3090   -5.5880   -0.5860 hc        1 MOL      0.112327
    138 H65         8.2720   -5.3860    0.9060 hc        1 MOL      0.112327
    139 H66         7.5870   -5.7650   -0.6950 hc        1 MOL      0.112327
    140 N12         7.2140   -0.9030   -1.0540 n         1 MOL     -0.346112
    141 C43         7.2240    0.5280   -1.3180 c3        1 MOL      0.053618
    142 C44         6.2690    1.3270   -0.4180 c         1 MOL      0.427010
    143 O21         6.7370    2.3540    0.0480 o         1 MOL     -0.528981
    144 C45         6.7300    0.7790   -2.7270 c3        1 MOL     -0.062002
    145 C46         6.7800    2.2170   -3.2290 c3        1 MOL      0.058361
    146 C47         6.2260    2.4270   -4.6540 c3        1 MOL     -0.057392
    147 C48         6.4940    3.8370   -5.0950 c3        1 MOL      0.178135
    148 N13         6.0260    4.1790   -6.4860 n4        1 MOL     -0.322498
    149 H67         6.7750   -1.4910   -1.7530 hn        1 MOL      0.222031
    150 H68         8.2020    0.9760   -1.1500 h1        1 MOL      0.095477
    151 H69         5.6690    0.5010   -2.7370 hc        1 MOL      0.000946
    152 H70         7.2870    0.1140   -3.3980 hc        1 MOL      0.000946
    153 H71         7.7950    2.5840   -3.0870 hc        1 MOL      0.006174
    154 H72         6.1770    2.7730   -2.5090 hc        1 MOL      0.006174
    155 H73         5.1470    2.2620   -4.7210 hc        1 MOL      0.033449
    156 H74         6.7780    1.8360   -5.3850 hc        1 MOL      0.033449
    157 H75         7.5720    3.9810   -5.0500 hx        1 MOL      0.032383
    158 H76         6.0760    4.5740   -4.4000 hx        1 MOL      0.032383
    159 H77         6.1800    5.1520   -6.7110 hn        1 MOL      0.280310
    160 H78         6.2960    3.5320   -7.2240 hn        1 MOL      0.280310
    161 H79         5.0160    4.2030   -6.3810 hn        1 MOL      0.280310
    162 N14         5.0650    0.8130   -0.1850 n         1 MOL     -0.058793
    163 C49         4.2180    1.4520    0.8850 c3        1 MOL     -0.128817
    164 C50         4.8580    1.3480    2.3440 c         1 MOL      0.500588
    165 O22         4.9170    2.3820    3.0090 o         1 MOL     -0.548610
    166 C51         2.8460    0.8300    0.8120 c3        1 MOL     -0.054423
    167 C52         2.0930    1.1810   -0.4290 c3        1 MOL      0.036669
    168 C53         0.6890    0.6230   -0.7840 c         1 MOL      0.668713
    169 O23         0.3900   -0.5580   -0.6160 o         1 MOL     -0.742166
    170 O24        -0.1660    1.2470   -1.4310 o         1 MOL     -0.742166
    171 H80         4.8460   -0.1260   -0.5000 hn        1 MOL      0.083730
    172 H81         4.1710    2.5300    0.7100 h1        1 MOL      0.064324
    173 H82         2.2750    1.2060    1.6530 hc        1 MOL      0.021451
    174 H83         2.9420   -0.2550    0.8950 hc        1 MOL      0.021451
    175 H84         2.7300    1.0120   -1.3000 hc        1 MOL     -0.036197
    176 H85         1.9810    2.2590   -0.4170 hc        1 MOL     -0.036197
    177 N15         5.3800    0.1700    2.7850 n         1 MOL     -0.183099
    178 C54         6.2140    0.1020    4.0490 c3        1 MOL     -0.167454
    179 H86         7.1050   -0.4970    3.8640 h1        1 MOL      0.084894
    180 H87         6.5090    1.1090    4.3450 h1        1 MOL      0.084894
    181 H88         5.6290   -0.3540    4.8470 h1        1 MOL      0.084894
    182 H89         5.1310   -0.6790    2.3050 hn        1 MOL      0.171371
    183 Ca1        -2.1690   -0.5910   -1.4900 Ca        1 MOL      1.795613
    184 O25        -1.4640   -3.0430   -2.5000 oh        1 MOL     -0.851290
    185 H90        -1.9840   -3.8410   -2.4100 ho        1 MOL      0.403569
    186 H91        -1.0140   -3.1550   -3.3380 ho        1 MOL      0.403569
    187 O26        -0.8700   -0.1280   -3.7340 oh        1 MOL     -0.851290
    188 H92        -0.3640    0.3550   -3.0850 ho        1 MOL      0.403569
    189 H93        -1.2810    0.5470   -4.2730 ho        1 MOL      0.403569
@<TRIPOS>BOND
     1    1    2 1   
     2    1    4 1   
     3    1    5 1   
     4    1    6 1   
     5    2    3 2   
     6    2    7 1   
     7    7    8 1   
     8    7   15 1   
     9    8    9 1   
    10    8   11 1   
    11    8   16 1   
    12    9   10 2   
    13    9   19 1   
    14   11   12 1   
    15   11   17 1   
    16   11   18 1   
    17   12   13 1   
    18   12   14 1   
    19   19   20 1   
    20   19   28 1   
    21   20   21 1   
    22   20   23 1   
    23   20   29 1   
    24   21   22 2   
    25   21   41 1   
    26   23   24 1   
    27   23   30 1   
    28   23   31 1   
    29   24   25 1   
    30   24   32 1   
    31   24   33 1   
    32   25   26 1   
    33   25   34 1   
    34   25   35 1   
    35   26   27 1   
    36   26   36 1   
    37   26   37 1   
    38   27   38 1   
    39   27   39 1   
    40   27   40 1   
    41   41   42 1   
    42   41   49 1   
    43   42   43 1   
    44   42   45 1   
    45   42   50 1   
    46   43   44 2   
    47   43   53 1   
    48   45   46 1   
    49   45   51 1   
    50   45   52 1   
    51   46   47 1   
    52   46   48 1   
    53   53   54 1   
    54   53   57 1   
    55   54   55 1   
    56   54   58 1   
    57   54   59 1   
    58   55   56 2   
    59   55   60 1   
    60   60   61 1   
    61   60   68 1   
    62   61   62 1   
    63   61   64 1   
    64   61   69 1   
    65   62   63 2   
    66   62   72 1   
    67   64   65 1   
    68   64   70 1   
    69   64   71 1   
    70   65   66 1   
    71   65   67 1   
    72   72   73 1   
    73   72   76 1   
    74   73   74 1   
    75   73   77 1   
    76   73   78 1   
    77   74   75 2   
    78   74   79 1   
    79   79   80 1   
    80   79   86 1   
    81   80   81 1   
    82   80   83 1   
    83   80   87 1   
    84   81   82 2   
    85   81   93 1   
    86   83   84 1   
    87   83   85 1   
    88   83   88 1   
    89   84   90 1   
    90   84   91 1   
    91   84   92 1   
    92   85   89 1   
    93   93   94 1   
    94   93  101 1   
    95   94   95 1   
    96   94   97 1   
    97   94  102 1   
    98   95   96 2   
    99   95  112 1   
   100   97   98 1   
   101   97   99 1   
   102   97  103 1   
   103   98  100 1   
   104   98  104 1   
   105   98  105 1   
   106   99  106 1   
   107   99  107 1   
   108   99  108 1   
   109  100  109 1   
   110  100  110 1   
   111  100  111 1   
   112  112  113 1   
   113  112  119 1   
   114  113  114 1   
   115  113  116 1   
   116  113  120 1   
   117  114  115 2   
   118  114  126 1   
   119  116  117 1   
   120  116  118 1   
   121  116  121 1   
   122  117  123 1   
   123  117  124 1   
   124  117  125 1   
   125  118  122 1   
   126  126  127 1   
   127  126  133 1   
   128  127  128 1   
   129  127  130 1   
   130  127  134 1   
   131  128  129 2   
   132  128  140 1   
   133  130  131 1   
   134  130  132 1   
   135  130  135 1   
   136  131  137 1   
   137  131  138 1   
   138  131  139 1   
   139  132  136 1   
   140  140  141 1   
   141  140  149 1   
   142  141  142 1   
   143  141  144 1   
   144  141  150 1   
   145  142  143 2   
   146  142  162 1   
   147  144  145 1   
   148  144  151 1   
   149  144  152 1   
   150  145  146 1   
   151  145  153 1   
   152  145  154 1   
   153  146  147 1   
   154  146  155 1   
   155  146  156 1   
   156  147  148 1   
   157  147  157 1   
   158  147  158 1   
   159  148  159 1   
   160  148  160 1   
   161  148  161 1   
   162  162  163 1   
   163  162  171 1   
   164  163  164 1   
   165  163  166 1   
   166  163  172 1   
   167  164  165 2   
   168  164  177 1   
   169  166  167 1   
   170  166  173 1   
   171  166  174 1   
   172  167  168 1   
   173  167  175 1   
   174  167  176 1   
   175  168  169 1   
   176  168  170 1   
   177  177  178 1   
   178  177  182 1   
   179  178  179 1   
   180  178  180 1   
   181  178  181 1   
   182  184  185 1   
   183  184  186 1   
   184  187  188 1   
   185  187  189 1   
@<TRIPOS>SUBSTRUCTURE
     1 MOL         1 TEMP              0 ****  ****    0 ROOT
