@<TRIPOS>MOLECULE
MOL
  175   173     1     0     0
SMALL
resp


@<TRIPOS>ATOM
      1 C1         -0.3690   -3.8340    5.5000 c3        1 MOL     -0.475680
      2 C2          0.2710   -3.8340    4.1420 c         1 MOL      0.791289
      3 O1         -0.4220   -3.9540    3.1510 o         1 MOL     -0.561655
      4 H1         -1.4340   -4.0470    5.4000 hc        1 MOL      0.113995
      5 H2          0.0960   -4.5990    6.1220 hc        1 MOL      0.113995
      6 H3         -0.2380   -2.8570    5.9650 hc        1 MOL      0.113995
      7 N1          1.5570   -3.7310    3.9890 n         1 MOL     -0.678919
      8 C3          2.2190   -3.4330    2.7620 c3        1 MOL      0.160927
      9 C4          2.2370   -4.6060    1.7800 c         1 MOL      0.592753
     10 O2          2.2840   -5.7500    2.2270 o         1 MOL     -0.574289
     11 C5          3.6580   -2.9210    3.0000 c3        1 MOL     -0.334603
     12 C6          4.2590   -2.0860    1.8330 c         1 MOL      0.809460
     13 O3          5.3390   -1.5010    2.0130 o         1 MOL     -0.700776
     14 O4          3.5870   -2.0000    0.7850 o         1 MOL     -0.700776
     15 H4          2.1850   -3.8220    4.7660 hn        1 MOL      0.327363
     16 H5          1.5980   -2.6580    2.2980 h1        1 MOL      0.086183
     17 H6          4.2630   -3.8160    3.1790 hc        1 MOL      0.068846
     18 H7          3.7750   -2.2300    3.8340 hc        1 MOL      0.068846
     19 N2          2.1340   -4.4140    0.4510 n         1 MOL     -0.553221
     20 C7          2.1740   -5.4540   -0.5450 c3        1 MOL      0.284256
     21 C8          3.1450   -5.1310   -1.6270 c         1 MOL      0.467221
     22 O5          3.2460   -5.9200   -2.5800 o         1 MOL     -0.584948
     23 C9          0.7600   -5.6050   -1.1260 c3        1 MOL     -0.240306
     24 H8          1.8460   -3.5060    0.1390 hn        1 MOL      0.392781
     25 H9          2.4150   -6.3920   -0.0460 h1        1 MOL      0.011495
     26 H10         0.0640   -5.8990   -0.3490 hc        1 MOL      0.059938
     27 H11         0.5160   -4.7000   -1.6770 hc        1 MOL      0.059938
     28 H12         0.7110   -6.4370   -1.8320 hc        1 MOL      0.059938
     29 N3          3.9350   -4.0550   -1.5550 n         1 MOL     -0.402495
     30 C10         4.8690   -3.6100   -2.6140 c3        1 MOL      0.098431
     31 C11         6.0320   -2.8100   -2.0900 c         1 MOL      0.456299
     32 O6          6.9590   -2.7260   -2.8710 o         1 MOL     -0.540319
     33 C12         4.0300   -2.7340   -3.6270 c3        1 MOL     -0.081954
     34 C13         3.1650   -1.6450   -2.9000 c         1 MOL      0.681807
     35 O7          3.6400   -1.0370   -1.9280 o         1 MOL     -0.680184
     36 O8          2.0040   -1.4490   -3.3790 o         1 MOL     -0.680184
     37 H13         3.8090   -3.4470   -0.7520 hn        1 MOL      0.146534
     38 H14         5.2870   -4.3600   -3.2760 h1        1 MOL      0.064779
     39 H15         3.3320   -3.3290   -4.2140 hc        1 MOL      0.015745
     40 H16         4.6870   -2.1950   -4.3040 hc        1 MOL      0.015745
     41 N4          6.0210   -2.3950   -0.8320 n         1 MOL     -0.361894
     42 C14         7.1100   -1.5340   -0.3460 c3        1 MOL     -0.083719
     43 C15         7.1610   -0.1620   -1.0330 c         1 MOL      0.385111
     44 O9          8.2900    0.3680   -1.2320 o         1 MOL     -0.606841
     45 H17         5.1810   -2.4280   -0.2680 hn        1 MOL      0.238438
     46 H18         8.0310   -2.0820   -0.5670 h1        1 MOL      0.099950
     47 H19         7.1830   -1.3780    0.7320 h1        1 MOL      0.099950
     48 N5          6.0400    0.4460   -1.4190 n         1 MOL     -0.008768
     49 C16         6.0150    1.6800   -2.2640 c3        1 MOL     -0.038392
     50 C17         6.0070    3.0320   -1.3820 c         1 MOL      0.481136
     51 O10         5.8310    4.0750   -1.8830 o         1 MOL     -0.499671
     52 C18         4.9640    1.6050   -3.3760 c3        1 MOL     -0.141525
     53 C19         3.5010    1.8810   -2.9000 c         1 MOL      0.504896
     54 N6          2.5770    1.7950   -3.7770 n         1 MOL     -0.573371
     55 O11         3.3170    2.0570   -1.6800 o         1 MOL     -0.539598
     56 H20         5.1310    0.0700   -1.2190 hn        1 MOL      0.113413
     57 H21         6.9770    1.6870   -2.7600 h1        1 MOL      0.094695
     58 H22         5.0040    0.6320   -3.8570 hc        1 MOL      0.043283
     59 H23         5.1840    2.3590   -4.1410 hc        1 MOL      0.043283
     60 H24         2.6620    1.6990   -4.7710 hn        1 MOL      0.329584
     61 H25         1.6280    1.9440   -3.4580 hn        1 MOL      0.329584
     62 N7          6.2480    2.9150   -0.0290 n         1 MOL     -0.343602
     63 C20         6.3830    4.0840    0.8580 c3        1 MOL     -0.180882
     64 C21         5.0140    4.6800    1.3260 c         1 MOL      0.521817
     65 O12         5.0320    5.5500    2.2010 o         1 MOL     -0.571798
     66 H26         6.0830    1.9740    0.3150 hn        1 MOL      0.213914
     67 H27         6.9810    4.9100    0.4690 h1        1 MOL      0.116792
     68 H28         6.8730    3.7120    1.7560 h1        1 MOL      0.116792
     69 N8          3.8340    4.1770    0.8040 n         1 MOL     -0.267582
     70 C22         2.4660    4.7570    1.0280 c3        1 MOL     -0.025536
     71 C23         1.3840    3.6150    1.2440 c         1 MOL      0.464157
     72 O13         1.7120    2.4880    0.9220 o         1 MOL     -0.606649
     73 C24         1.9860    5.7990    0.0000 c3        1 MOL      0.514067
     74 C25         2.6760    7.1480    0.2250 c3        1 MOL     -0.441648
     75 O14         2.1040    5.3200   -1.3390 oh        1 MOL     -0.610254
     76 H29         3.9130    3.4280    0.1390 hn        1 MOL      0.191773
     77 H30         2.3500    5.1760    2.0230 h1        1 MOL      0.040846
     78 H31         0.9020    5.9060    0.1400 h1        1 MOL     -0.065025
     79 H32         1.8620    4.3890   -1.3050 ho        1 MOL      0.370635
     80 H33         3.7160    7.0440   -0.0910 hc        1 MOL      0.109302
     81 H34         2.1690    7.9280   -0.3390 hc        1 MOL      0.109302
     82 H35         2.6810    7.3660    1.2970 hc        1 MOL      0.109302
     83 N9          0.2910    3.9090    1.8590 n         1 MOL     -0.425135
     84 C26        -0.7530    3.0010    2.0160 c3        1 MOL      0.084393
     85 C27        -1.6080    3.1520    0.7970 c         1 MOL      0.562979
     86 O15        -2.0750    4.2560    0.5390 o         1 MOL     -0.608416
     87 C28        -1.4930    3.1050    3.3720 c3        1 MOL      0.136312
     88 C29        -0.4920    2.9700    4.5100 c3        1 MOL      0.234651
     89 C30        -2.5720    1.9710    3.4760 c3        1 MOL     -0.370731
     90 C31        -1.0380    2.8920    5.9800 c3        1 MOL     -0.274769
     91 H36         0.0420    4.8710    2.0580 hn        1 MOL      0.269740
     92 H37        -0.4770    1.9520    1.8670 h1        1 MOL      0.048347
     93 H38        -2.0170    4.0570    3.3220 hc        1 MOL     -0.031762
     94 H39         0.0930    3.8970    4.4490 hc        1 MOL     -0.066749
     95 H40         0.0630    2.0670    4.2770 hc        1 MOL     -0.066749
     96 H41        -3.1680    1.9580    4.3930 hc        1 MOL      0.085520
     97 H42        -3.2580    2.0040    2.6360 hc        1 MOL      0.085520
     98 H43        -2.1290    0.9780    3.5100 hc        1 MOL      0.085520
     99 H44        -1.3590    1.8630    6.1540 hc        1 MOL      0.058720
    100 H45        -0.2100    3.2120    6.6120 hc        1 MOL      0.058720
    101 H46        -1.8650    3.5890    6.1150 hc        1 MOL      0.058720
    102 N10        -1.7480    2.0720    0.0340 n         1 MOL     -0.127544
    103 C32        -2.6510    2.0160   -1.1720 c3        1 MOL     -0.001203
    104 C33        -4.0970    1.6520   -0.8420 c         1 MOL      0.387943
    105 O16        -4.3260    1.2080    0.2680 o         1 MOL     -0.313941
    106 C34        -2.0710    1.0350   -2.1900 c3        1 MOL     -0.261445
    107 C35        -0.5560    1.2240   -2.4660 c         1 MOL      0.770814
    108 O17         0.2670    0.7900   -1.6350 o         1 MOL     -0.689002
    109 O18        -0.1640    1.8350   -3.5040 o         1 MOL     -0.689002
    110 H47        -1.2310    1.2360    0.2950 hn        1 MOL     -0.019728
    111 H48        -2.6070    3.0200   -1.6000 h1        1 MOL      0.077288
    112 H49        -2.5150    1.1040   -3.1850 hc        1 MOL      0.073525
    113 H50        -2.3000    0.0110   -1.8970 hc        1 MOL      0.073525
    114 N11        -5.0190    1.7040   -1.7350 n         1 MOL     -0.514014
    115 C36        -6.3710    1.3850   -1.4230 c3        1 MOL      0.277509
    116 C37        -6.6480   -0.0890   -0.9560 c         1 MOL      0.408332
    117 O19        -7.3000   -0.1950    0.1000 o         1 MOL     -0.490931
    118 C38        -7.3070    1.7270   -2.6400 c3        1 MOL     -0.161959
    119 C39        -8.8310    1.5920   -2.4540 ca        1 MOL      0.086325
    120 C40        -9.4050    2.1210   -1.2830 ca        1 MOL     -0.158659
    121 C41        -9.6070    0.8200   -3.3680 ca        1 MOL     -0.158659
    122 C42       -10.7710    1.8200   -0.9890 ca        1 MOL     -0.169081
    123 C43       -11.0140    0.6060   -3.0800 ca        1 MOL     -0.169081
    124 C44       -11.5200    1.0790   -1.8950 ca        1 MOL     -0.021632
    125 H51        -4.7870    2.0800   -2.6390 hn        1 MOL      0.307773
    126 H52        -6.5820    2.0080   -0.5620 h1        1 MOL      0.065270
    127 H53        -6.9880    1.1360   -3.4920 hc        1 MOL      0.051964
    128 H54        -7.2380    2.7640   -2.9510 hc        1 MOL      0.051964
    129 H55        -8.8260    2.7310   -0.6050 ha        1 MOL      0.118649
    130 H56        -9.1180    0.4560   -4.2630 ha        1 MOL      0.118649
    131 H57       -11.2260    2.1620   -0.0730 ha        1 MOL      0.128785
    132 H58       -11.6940   -0.0220   -3.6310 ha        1 MOL      0.128785
    133 H59       -12.5580    0.8440   -1.7360 ha        1 MOL      0.070574
    134 N12        -6.2830   -1.1830   -1.6420 n         1 MOL     -0.224612
    135 C45        -6.4790   -2.5150   -1.1590 c3        1 MOL      0.191877
    136 C46        -5.9360   -2.6630    0.2860 c         1 MOL      0.265797
    137 O20        -6.5660   -3.3490    1.0820 o         1 MOL     -0.482422
    138 C47        -5.8720   -3.4820   -2.2040 c3        1 MOL     -0.191091
    139 C48        -4.8860   -2.6190   -2.9650 c3        1 MOL      0.002747
    140 C49        -5.4890   -1.2150   -2.8750 c3        1 MOL      0.055440
    141 H60        -7.5500   -2.7260   -1.1210 h1        1 MOL      0.029344
    142 H61        -5.3690   -4.3270   -1.7430 hc        1 MOL      0.067345
    143 H62        -6.7270   -3.8130   -2.7990 hc        1 MOL      0.067345
    144 H63        -3.9920   -2.4760   -2.3640 hc        1 MOL      0.042988
    145 H64        -4.6400   -2.9270   -3.9850 hc        1 MOL      0.042988
    146 H65        -4.6490   -0.5480   -2.6790 h1        1 MOL      0.004737
    147 H66        -6.0640   -0.8830   -3.7360 h1        1 MOL      0.004737
    148 N13        -4.7620   -2.0440    0.5280 n         1 MOL     -0.019534
    149 C50        -4.0800   -2.0150    1.8210 c3        1 MOL     -0.103555
    150 C51        -4.7980   -1.2510    2.8990 c         1 MOL      0.391792
    151 O21        -4.9250   -1.7210    4.0640 o         1 MOL     -0.561733
    152 C52        -2.6630   -1.4260    1.6530 c3        1 MOL     -0.180987
    153 C53        -1.8010   -2.0090    0.5630 c3        1 MOL      0.174745
    154 C54        -0.3190   -1.5400    0.6010 c         1 MOL      0.439079
    155 O22         0.0110   -0.5350    1.2560 o         1 MOL     -0.651129
    156 O23         0.4830   -2.1080   -0.1800 o         1 MOL     -0.651129
    157 H67        -4.2760   -1.5680   -0.2210 hn        1 MOL      0.088859
    158 H68        -4.0610   -3.0380    2.1920 h1        1 MOL      0.100558
    159 H69        -2.2180   -1.5410    2.6460 hc        1 MOL      0.096088
    160 H70        -2.6730   -0.3770    1.3470 hc        1 MOL      0.096088
    161 H71        -2.2180   -1.9180   -0.4420 hc        1 MOL     -0.006265
    162 H72        -1.8660   -3.0960    0.6340 hc        1 MOL     -0.006265
    163 N14        -5.3680   -0.1080    2.5360 n         1 MOL      0.102146
    164 C55        -6.1390    0.7220    3.4750 c3        1 MOL     -0.199804
    165 H73        -7.1760    0.3860    3.4900 h1        1 MOL      0.069311
    166 H74        -5.7140    0.6290    4.4750 h1        1 MOL      0.069311
    167 H75        -6.0980    1.7640    3.1570 h1        1 MOL      0.069311
    168 H76        -5.1880    0.1940    1.5860 hn        1 MOL     -0.054362
    169 Ca1         2.1060    0.0210   -0.1130 Ca        1 MOL      1.698106
    170 O24         4.5100    0.8480    1.2940 oh        1 MOL     -0.723705
    171 H77         5.0320    0.0460    1.3770 ho        1 MOL      0.371354
    172 H78         4.1700    0.9970    2.1750 ho        1 MOL      0.371354
    173 O25         2.2550    0.1060    3.0930 oh        1 MOL     -0.723705
    174 H79         2.3510    0.2940    4.0260 ho        1 MOL      0.371354
    175 H80         1.3220   -0.0610    2.9820 ho        1 MOL      0.371354
@<TRIPOS>BOND
     1    1    2 1   
     2    1    4 1   
     3    1    5 1   
     4    1    6 1   
     5    2    3 2   
     6    2    7 1   
     7    7    8 1   
     8    7   15 1   
     9    8    9 1   
    10    8   11 1   
    11    8   16 1   
    12    9   10 2   
    13    9   19 1   
    14   11   12 1   
    15   11   17 1   
    16   11   18 1   
    17   12   13 1   
    18   12   14 1   
    19   19   20 1   
    20   19   24 1   
    21   20   21 1   
    22   20   23 1   
    23   20   25 1   
    24   21   22 2   
    25   21   29 1   
    26   23   26 1   
    27   23   27 1   
    28   23   28 1   
    29   29   30 1   
    30   29   37 1   
    31   30   31 1   
    32   30   33 1   
    33   30   38 1   
    34   31   32 2   
    35   31   41 1   
    36   33   34 1   
    37   33   39 1   
    38   33   40 1   
    39   34   35 1   
    40   34   36 1   
    41   41   42 1   
    42   41   45 1   
    43   42   43 1   
    44   42   46 1   
    45   42   47 1   
    46   43   44 2   
    47   43   48 1   
    48   48   49 1   
    49   48   56 1   
    50   49   50 1   
    51   49   52 1   
    52   49   57 1   
    53   50   51 2   
    54   50   62 1   
    55   52   53 1   
    56   52   58 1   
    57   52   59 1   
    58   53   54 1   
    59   53   55 2   
    60   54   60 1   
    61   54   61 1   
    62   62   63 1   
    63   62   66 1   
    64   63   64 1   
    65   63   67 1   
    66   63   68 1   
    67   64   65 2   
    68   64   69 1   
    69   69   70 1   
    70   69   76 1   
    71   70   71 1   
    72   70   73 1   
    73   70   77 1   
    74   71   72 2   
    75   71   83 1   
    76   73   74 1   
    77   73   75 1   
    78   73   78 1   
    79   74   80 1   
    80   74   81 1   
    81   74   82 1   
    82   75   79 1   
    83   83   84 1   
    84   83   91 1   
    85   84   85 1   
    86   84   87 1   
    87   84   92 1   
    88   85   86 2   
    89   85  102 1   
    90   87   88 1   
    91   87   89 1   
    92   87   93 1   
    93   88   90 1   
    94   88   94 1   
    95   88   95 1   
    96   89   96 1   
    97   89   97 1   
    98   89   98 1   
    99   90   99 1   
   100   90  100 1   
   101   90  101 1   
   102  102  103 1   
   103  102  110 1   
   104  103  104 1   
   105  103  106 1   
   106  103  111 1   
   107  104  105 2   
   108  104  114 1   
   109  106  107 1   
   110  106  112 1   
   111  106  113 1   
   112  107  108 1   
   113  107  109 1   
   114  114  115 1   
   115  114  125 1   
   116  115  116 1   
   117  115  118 1   
   118  115  126 1   
   119  116  117 2   
   120  116  134 1   
   121  118  119 1   
   122  118  127 1   
   123  118  128 1   
   124  119  120 ar  
   125  119  121 ar  
   126  120  122 ar  
   127  120  129 1   
   128  121  123 ar  
   129  121  130 1   
   130  122  124 ar  
   131  122  131 1   
   132  123  124 ar  
   133  123  132 1   
   134  124  133 1   
   135  134  135 1   
   136  134  140 1   
   137  135  136 1   
   138  135  138 1   
   139  135  141 1   
   140  136  137 2   
   141  136  148 1   
   142  138  139 1   
   143  138  142 1   
   144  138  143 1   
   145  139  140 1   
   146  139  144 1   
   147  139  145 1   
   148  140  146 1   
   149  140  147 1   
   150  148  149 1   
   151  148  157 1   
   152  149  150 1   
   153  149  152 1   
   154  149  158 1   
   155  150  151 2   
   156  150  163 1   
   157  152  153 1   
   158  152  159 1   
   159  152  160 1   
   160  153  154 1   
   161  153  161 1   
   162  153  162 1   
   163  154  155 1   
   164  154  156 1   
   165  163  164 1   
   166  163  168 1   
   167  164  165 1   
   168  164  166 1   
   169  164  167 1   
   170  170  171 1   
   171  170  172 1   
   172  173  174 1   
   173  173  175 1   
@<TRIPOS>SUBSTRUCTURE
     1 MOL         1 TEMP              0 ****  ****    0 ROOT
