@<TRIPOS>MOLECULE
MOL
  186   183     1     0     0
SMALL
resp


@<TRIPOS>ATOM
      1 C1          1.4090   -3.2560    6.2660 c3        1 MOL     -0.407418
      2 C2          1.3650   -2.8930    4.7490 c         1 MOL      0.671546
      3 O1          0.8630   -1.7860    4.4250 o         1 MOL     -0.558896
      4 H1          0.4440   -3.6610    6.5710 hc        1 MOL      0.106305
      5 H2          2.1870   -4.0010    6.4400 hc        1 MOL      0.106305
      6 H3          1.6260   -2.3600    6.8490 hc        1 MOL      0.106305
      7 N1          1.9890   -3.7450    3.8710 n         1 MOL     -0.605067
      8 C3          2.3370   -3.4820    2.4830 c3        1 MOL      0.540122
      9 C4          2.1910   -4.6760    1.5490 c         1 MOL      0.301903
     10 O2          2.3490   -5.8260    2.0260 o         1 MOL     -0.569405
     11 C5          3.7550   -2.9250    2.6010 c3        1 MOL     -0.198816
     12 C6          4.4820   -2.8960    1.2880 c         1 MOL      0.613743
     13 O3          4.0100   -2.2210    0.3120 o         1 MOL     -0.629913
     14 O4          5.6100   -3.4450    1.1910 o         1 MOL     -0.629913
     15 H4          2.1400   -4.7100    4.1230 hn        1 MOL      0.292817
     16 H5          1.6610   -2.6920    2.1480 h1        1 MOL     -0.140129
     17 H6          4.2800   -3.6290    3.2350 hc        1 MOL      0.002321
     18 H7          3.7400   -1.9520    3.0810 hc        1 MOL      0.002321
     19 N2          1.9630   -4.4910    0.2360 n         1 MOL     -0.068779
     20 C7          1.9960   -5.5610   -0.8190 c3        1 MOL     -0.176614
     21 C8          2.9350   -5.1640   -2.0280 c         1 MOL      0.496911
     22 O5          3.0650   -5.9430   -2.9940 o         1 MOL     -0.569773
     23 C9          0.5280   -5.8210   -1.2800 c3        1 MOL      0.046563
     24 C10         0.0320   -4.6420   -2.1690 c3        1 MOL     -0.112749
     25 C11        -0.3620   -6.3250   -0.0880 c3        1 MOL     -0.005403
     26 C12        -1.4490   -4.7860   -2.5190 c3        1 MOL     -0.112367
     27 H8          1.8050   -3.5710   -0.1490 hn        1 MOL      0.179719
     28 H9          2.3990   -6.4890   -0.4280 h1        1 MOL      0.125821
     29 H10         0.5230   -6.7050   -1.9110 hc        1 MOL      0.011453
     30 H11         0.5570   -4.6250   -3.1310 hc        1 MOL      0.084609
     31 H12         0.2390   -3.6850   -1.6910 hc        1 MOL      0.084609
     32 H13        -0.7150   -5.4680    0.4810 hc        1 MOL     -0.001164
     33 H14        -1.3100   -6.7420   -0.4050 hc        1 MOL     -0.001164
     34 H15         0.0450   -7.1360    0.5160 hc        1 MOL     -0.001164
     35 H16        -1.7190   -5.8270   -2.6450 hc        1 MOL      0.037444
     36 H17        -2.0040   -4.2140   -1.7750 hc        1 MOL      0.037444
     37 H18        -1.7780   -4.4020   -3.4850 hc        1 MOL      0.037444
     38 N3          3.4850   -3.9040   -2.1240 n         1 MOL     -0.440843
     39 C13         4.0740   -3.4140   -3.3760 c3        1 MOL      0.146554
     40 C14         5.3760   -2.6210   -3.1960 c         1 MOL      0.341449
     41 O6          6.1900   -2.4500   -4.1280 o         1 MOL     -0.550525
     42 C15         3.0840   -2.5590   -4.0990 c3        1 MOL     -0.308825
     43 C16         2.4400   -1.4590   -3.2340 c         1 MOL      0.783633
     44 O7          3.0060   -0.9530   -2.1980 o         1 MOL     -0.692962
     45 O8          1.3130   -1.0410   -3.5850 o         1 MOL     -0.692962
     46 H19         3.3780   -3.3270   -1.2980 hn        1 MOL      0.252735
     47 H20         4.3800   -4.2510   -4.0070 h1        1 MOL      0.093946
     48 H21         2.3550   -3.2760   -4.4700 hc        1 MOL      0.067154
     49 H22         3.6330   -2.1580   -4.9500 hc        1 MOL      0.067154
     50 N4          5.7860   -2.2570   -1.9730 n         1 MOL     -0.111324
     51 C17         7.1780   -1.8220   -1.6080 c3        1 MOL     -0.167688
     52 C18         7.4990   -0.3330   -1.9690 c         1 MOL      0.472079
     53 O9          8.6670   -0.0260   -2.3780 o         1 MOL     -0.617486
     54 H23         5.1620   -2.2420   -1.1830 hn        1 MOL      0.104822
     55 H24         7.8590   -2.3930   -2.2390 h1        1 MOL      0.091893
     56 H25         7.3640   -2.0340   -0.5630 h1        1 MOL      0.091893
     57 N5          6.5050    0.5530   -1.9310 n         1 MOL     -0.092702
     58 C19         6.4880    1.8900   -2.5410 c3        1 MOL     -0.102167
     59 C20         6.7990    3.0350   -1.5400 c         1 MOL      0.272848
     60 O10         6.6270    4.1790   -1.9740 o         1 MOL     -0.482484
     61 C21         5.0780    2.2280   -3.1180 c3        1 MOL     -0.123324
     62 C22         3.9660    2.1620   -2.0500 c         1 MOL      0.565832
     63 O11         4.2340    1.7470   -0.8750 o         1 MOL     -0.656344
     64 O12         2.7940    2.5610   -2.3470 o         1 MOL     -0.656344
     65 H26         5.6970    0.2600   -1.4010 hn        1 MOL      0.098682
     66 H27         7.2160    1.9160   -3.3560 h1        1 MOL      0.137010
     67 H28         4.9310    1.4210   -3.8380 hc        1 MOL      0.070266
     68 H29         5.1490    3.1700   -3.6710 hc        1 MOL      0.070266
     69 N6          7.1150    2.8690   -0.2660 n         1 MOL     -0.087734
     70 C23         7.1450    3.9530    0.7660 c3        1 MOL     -0.339240
     71 C24         5.7920    4.4320    1.4480 c         1 MOL      0.645007
     72 O13         5.8720    5.4030    2.2220 o         1 MOL     -0.586745
     73 H30         7.4480    1.9610    0.0240 hn        1 MOL      0.166501
     74 H31         7.5750    4.8450    0.3060 h1        1 MOL      0.130328
     75 H32         7.8230    3.6040    1.5430 h1        1 MOL      0.130328
     76 N7          4.6300    3.7800    1.3060 n         1 MOL     -0.573780
     77 C25         3.3120    4.3400    1.8510 c3        1 MOL      0.068112
     78 C26         2.1530    3.3450    1.8220 c         1 MOL      0.423187
     79 O14         2.1540    2.3310    1.0870 o         1 MOL     -0.525875
     80 C27         2.8650    5.5570    1.0810 c3        1 MOL     -0.180494
     81 C28         2.6360    5.2920   -0.4320 c3        1 MOL     -0.030204
     82 C29         2.0740    6.5120   -1.1480 c         1 MOL      0.650019
     83 N8          1.6570    6.4940   -2.4180 n         1 MOL     -0.845543
     84 O15         1.9320    7.5310   -0.5420 o         1 MOL     -0.591784
     85 H33         4.5000    3.0860    0.5870 hn        1 MOL      0.434526
     86 H34         3.4680    4.5460    2.9090 h1        1 MOL      0.038411
     87 H35         3.5860    6.3680    1.2000 hc        1 MOL      0.066970
     88 H36         1.9340    5.9000    1.5240 hc        1 MOL      0.066970
     89 H37         1.9200    4.4690   -0.5170 hc        1 MOL      0.084709
     90 H38         3.5310    4.9970   -0.9700 hc        1 MOL      0.084709
     91 H39         1.4900    5.5670   -2.7980 hn        1 MOL      0.371644
     92 H40         1.3090    7.3580   -2.7930 hn        1 MOL      0.371644
     93 N9          1.1410    3.6530    2.6240 n         1 MOL     -0.350422
     94 C30        -0.0490    2.7880    2.7030 c3        1 MOL      0.149825
     95 C31        -1.2030    3.3170    1.9090 c         1 MOL      0.427696
     96 O16        -1.2420    4.5080    1.7210 o         1 MOL     -0.560851
     97 C32        -0.5120    2.4770    4.1760 c3        1 MOL      0.032214
     98 C33        -1.4970    1.3130    4.2550 c3        1 MOL     -0.141207
     99 C34         0.6630    2.3120    5.1340 c3        1 MOL     -0.141207
    100 H41         1.2000    4.4720    3.2120 hn        1 MOL      0.263518
    101 H42         0.2440    1.8410    2.2460 h1        1 MOL      0.174008
    102 H43        -0.9220    3.4290    4.5000 hc        1 MOL     -0.013892
    103 H44        -2.3750    1.5470    3.6490 hc        1 MOL      0.029473
    104 H45        -0.9940    0.3970    3.9670 hc        1 MOL      0.029473
    105 H46        -1.8700    1.2820    5.2850 hc        1 MOL      0.029473
    106 H47         1.4260    1.6950    4.6730 hc        1 MOL      0.029473
    107 H48         1.1210    3.2360    5.4830 hc        1 MOL      0.029473
    108 H49         0.3680    1.8400    6.0720 hc        1 MOL      0.029473
    109 N10        -2.1210    2.4930    1.4370 n         1 MOL     -0.259123
    110 C35        -3.2580    2.8310    0.6380 c3        1 MOL      0.092986
    111 C36        -4.3950    1.9030    1.1250 c         1 MOL      0.316002
    112 O17        -4.1630    0.8830    1.7860 o         1 MOL     -0.445290
    113 C37        -2.8400    2.5480   -0.8200 c3        1 MOL     -0.309967
    114 C38        -3.9970    2.7530   -1.8770 c         1 MOL      0.726082
    115 N11        -4.6370    3.8580   -2.0140 n         1 MOL     -0.804638
    116 O18        -4.3670    1.8010   -2.5030 o         1 MOL     -0.583839
    117 H50        -1.9840    1.5130    1.6040 hn        1 MOL      0.191078
    118 H51        -3.4290    3.9080    0.6740 h1        1 MOL      0.050251
    119 H52        -2.5570    1.4910   -0.8580 hc        1 MOL      0.134482
    120 H53        -2.1350    3.3280   -1.1140 hc        1 MOL      0.134482
    121 H54        -4.3750    4.7150   -1.5490 hn        1 MOL      0.355127
    122 H55        -5.4070    3.6950   -2.6420 hn        1 MOL      0.355127
    123 N12        -5.6520    2.2030    0.7750 n         1 MOL     -0.255517
    124 C39        -6.9190    1.5210    1.1380 c3        1 MOL      0.118612
    125 C40        -7.0380    0.0360    0.8080 c         1 MOL      0.385104
    126 O19        -7.6690   -0.7360    1.4870 o         1 MOL     -0.540642
    127 C41        -8.0070    2.4140    0.5420 c3        1 MOL     -0.097585
    128 C42        -7.9470    2.7350   -0.9390 ca        1 MOL     -0.036562
    129 C43        -8.1470    1.7730   -1.9340 ca        1 MOL     -0.064982
    130 C44        -7.8470    4.1040   -1.3480 ca        1 MOL     -0.064982
    131 C45        -8.1700    2.1400   -3.2730 ca        1 MOL     -0.356628
    132 C46        -7.8490    4.4910   -2.7380 ca        1 MOL     -0.356628
    133 C47        -8.0360    3.4730   -3.7040 ca        1 MOL      0.484167
    134 O20        -8.1400    3.6570   -5.0200 oh        1 MOL     -0.597010
    135 H56        -5.7180    3.0320    0.2010 hn        1 MOL      0.135516
    136 H57        -6.9630    1.5100    2.2290 h1        1 MOL      0.048104
    137 H58        -8.1130    3.3610    1.0730 hc        1 MOL      0.038001
    138 H59        -8.8920    1.8480    0.8320 hc        1 MOL      0.038001
    139 H60        -8.2550    0.7330   -1.6710 ha        1 MOL      0.110512
    140 H61        -7.8340    4.8700   -0.5930 ha        1 MOL      0.110512
    141 H62        -8.2510    1.3260   -3.9680 ha        1 MOL      0.161873
    142 H63        -7.7070    5.5230   -3.0230 ha        1 MOL      0.161873
    143 H64        -8.0660    2.8460   -5.5310 ho        1 MOL      0.442599
    144 N13        -6.2760   -0.3750   -0.2430 n         1 MOL      0.006480
    145 C48        -6.1190   -1.7840   -0.5390 c3        1 MOL     -0.097080
    146 C49        -5.1750   -2.5640    0.3480 c         1 MOL      0.483140
    147 O21        -5.3630   -3.7400    0.5220 o         1 MOL     -0.510632
    148 C50        -5.6550   -1.7560   -1.9890 c3        1 MOL      0.031838
    149 C51        -5.5250   -3.1230   -2.6670 c3        1 MOL     -0.235860
    150 C52        -6.9070   -3.6920   -2.9900 c         1 MOL      0.680991
    151 O22        -7.4380   -4.5480   -2.2500 o         1 MOL     -0.736273
    152 O23        -7.5780   -3.2280   -4.0050 o         1 MOL     -0.736273
    153 H65        -5.7870    0.3810   -0.7110 hn        1 MOL      0.144855
    154 H66        -7.0660   -2.3400   -0.4670 h1        1 MOL      0.136573
    155 H67        -4.6180   -1.4500   -1.8480 hc        1 MOL      0.005051
    156 H68        -6.2910   -1.0850   -2.5630 hc        1 MOL      0.005051
    157 H69        -4.9140   -3.8810   -2.1870 hc        1 MOL      0.038936
    158 H70        -4.9640   -3.0140   -3.5960 hc        1 MOL      0.038936
    159 N14        -4.2290   -1.8700    1.0230 n         1 MOL     -0.306302
    160 C53        -3.2400   -2.4010    1.9920 c3        1 MOL     -0.266475
    161 C54        -3.7820   -2.2870    3.4570 c         1 MOL      0.402645
    162 O24        -3.0270   -2.6040    4.3960 o         1 MOL     -0.540055
    163 C55        -1.9300   -1.6300    1.8240 c3        1 MOL      0.057565
    164 C56        -1.3940   -1.7170    0.3650 c3        1 MOL     -0.104268
    165 C57        -0.0050   -1.0920    0.3110 c         1 MOL      0.919414
    166 O25         0.2660    0.1040    0.4330 o         1 MOL     -0.872084
    167 O26         0.9450   -1.8130    0.0540 o         1 MOL     -0.872084
    168 H71        -4.1370   -0.8770    0.8870 hn        1 MOL      0.208593
    169 H72        -3.0600   -3.4540    1.8070 h1        1 MOL      0.184094
    170 H73        -1.1470   -2.0190    2.4670 hc        1 MOL      0.065532
    171 H74        -2.0780   -0.5970    2.1270 hc        1 MOL      0.065532
    172 H75        -2.0120   -1.2190   -0.3840 hc        1 MOL      0.043002
    173 H76        -1.2630   -2.7560    0.0890 hc        1 MOL      0.043002
    174 N15        -5.0120   -1.8550    3.6680 n         1 MOL     -0.120982
    175 C58        -5.7190   -1.5110    4.9040 c3        1 MOL     -0.143885
    176 H77        -6.2150   -2.3980    5.2980 h1        1 MOL      0.068986
    177 H78        -5.0050   -1.1380    5.6390 h1        1 MOL      0.068986
    178 H79        -6.4620   -0.7420    4.6970 h1        1 MOL      0.068986
    179 H80        -5.4880   -1.6580    2.8010 hn        1 MOL      0.182274
    180 Ca1         2.8200   -0.0710    0.2410 Ca        1 MOL      1.742737
    181 O27         2.0610   -0.1070    2.8120 oh        1 MOL     -0.865649
    182 H81         2.8460   -0.1860    3.3490 ho        1 MOL      0.411466
    183 H82         1.3460   -0.3930    3.3780 ho        1 MOL      0.411466
    184 O28         4.8370    0.6000    1.8950 oh        1 MOL     -0.865649
    185 H83         4.9350    0.5570    2.8450 ho        1 MOL      0.411466
    186 H84         5.6930    0.8900    1.5680 ho        1 MOL      0.411466
@<TRIPOS>BOND
     1    1    2 1   
     2    1    4 1   
     3    1    5 1   
     4    1    6 1   
     5    2    3 2   
     6    2    7 1   
     7    7    8 1   
     8    7   15 1   
     9    8    9 1   
    10    8   11 1   
    11    8   16 1   
    12    9   10 2   
    13    9   19 1   
    14   11   12 1   
    15   11   17 1   
    16   11   18 1   
    17   12   13 1   
    18   12   14 1   
    19   19   20 1   
    20   19   27 1   
    21   20   21 1   
    22   20   23 1   
    23   20   28 1   
    24   21   22 2   
    25   21   38 1   
    26   23   24 1   
    27   23   25 1   
    28   23   29 1   
    29   24   26 1   
    30   24   30 1   
    31   24   31 1   
    32   25   32 1   
    33   25   33 1   
    34   25   34 1   
    35   26   35 1   
    36   26   36 1   
    37   26   37 1   
    38   38   39 1   
    39   38   46 1   
    40   39   40 1   
    41   39   42 1   
    42   39   47 1   
    43   40   41 2   
    44   40   50 1   
    45   42   43 1   
    46   42   48 1   
    47   42   49 1   
    48   43   44 1   
    49   43   45 1   
    50   50   51 1   
    51   50   54 1   
    52   51   52 1   
    53   51   55 1   
    54   51   56 1   
    55   52   53 2   
    56   52   57 1   
    57   57   58 1   
    58   57   65 1   
    59   58   59 1   
    60   58   61 1   
    61   58   66 1   
    62   59   60 2   
    63   59   69 1   
    64   61   62 1   
    65   61   67 1   
    66   61   68 1   
    67   62   63 1   
    68   62   64 1   
    69   69   70 1   
    70   69   73 1   
    71   70   71 1   
    72   70   74 1   
    73   70   75 1   
    74   71   72 2   
    75   71   76 1   
    76   76   77 1   
    77   76   85 1   
    78   77   78 1   
    79   77   80 1   
    80   77   86 1   
    81   78   79 2   
    82   78   93 1   
    83   80   81 1   
    84   80   87 1   
    85   80   88 1   
    86   81   82 1   
    87   81   89 1   
    88   81   90 1   
    89   82   83 1   
    90   82   84 2   
    91   83   91 1   
    92   83   92 1   
    93   93   94 1   
    94   93  100 1   
    95   94   95 1   
    96   94   97 1   
    97   94  101 1   
    98   95   96 2   
    99   95  109 1   
   100   97   98 1   
   101   97   99 1   
   102   97  102 1   
   103   98  103 1   
   104   98  104 1   
   105   98  105 1   
   106   99  106 1   
   107   99  107 1   
   108   99  108 1   
   109  109  110 1   
   110  109  117 1   
   111  110  111 1   
   112  110  113 1   
   113  110  118 1   
   114  111  112 2   
   115  111  123 1   
   116  113  114 1   
   117  113  119 1   
   118  113  120 1   
   119  114  115 1   
   120  114  116 2   
   121  115  121 1   
   122  115  122 1   
   123  123  124 1   
   124  123  135 1   
   125  124  125 1   
   126  124  127 1   
   127  124  136 1   
   128  125  126 2   
   129  125  144 1   
   130  127  128 1   
   131  127  137 1   
   132  127  138 1   
   133  128  129 ar  
   134  128  130 ar  
   135  129  131 ar  
   136  129  139 1   
   137  130  132 ar  
   138  130  140 1   
   139  131  133 ar  
   140  131  141 1   
   141  132  133 ar  
   142  132  142 1   
   143  133  134 1   
   144  134  143 1   
   145  144  145 1   
   146  144  153 1   
   147  145  146 1   
   148  145  148 1   
   149  145  154 1   
   150  146  147 2   
   151  146  159 1   
   152  148  149 1   
   153  148  155 1   
   154  148  156 1   
   155  149  150 1   
   156  149  157 1   
   157  149  158 1   
   158  150  151 1   
   159  150  152 1   
   160  159  160 1   
   161  159  168 1   
   162  160  161 1   
   163  160  163 1   
   164  160  169 1   
   165  161  162 2   
   166  161  174 1   
   167  163  164 1   
   168  163  170 1   
   169  163  171 1   
   170  164  165 1   
   171  164  172 1   
   172  164  173 1   
   173  165  166 1   
   174  165  167 1   
   175  174  175 1   
   176  174  179 1   
   177  175  176 1   
   178  175  177 1   
   179  175  178 1   
   180  181  182 1   
   181  181  183 1   
   182  184  185 1   
   183  184  186 1   
@<TRIPOS>SUBSTRUCTURE
     1 MOL         1 TEMP              0 ****  ****    0 ROOT
