@<TRIPOS>MOLECULE
MOL
  179   176     1     0     0
SMALL
resp


@<TRIPOS>ATOM
      1 C1          2.0110    3.9470    3.7610 c3        1 MOL     -0.371301
      2 C2          1.1160    3.4670    2.6580 c         1 MOL      0.682889
      3 O1          1.5920    3.5000    1.5320 o         1 MOL     -0.567069
      4 H1          2.9960    3.4960    3.6510 hc        1 MOL      0.091700
      5 H2          2.1010    5.0320    3.7100 hc        1 MOL      0.091700
      6 H3          1.5870    3.6610    4.7230 hc        1 MOL      0.091700
      7 N1         -0.1160    3.1460    2.9300 n         1 MOL     -0.584597
      8 C3         -1.1120    2.6830    1.9430 c3        1 MOL      0.058921
      9 C4         -1.7860    3.8640    1.2380 c         1 MOL      0.601774
     10 O2         -2.9120    4.2150    1.5940 o         1 MOL     -0.482387
     11 C5         -2.0220    1.7610    2.6230 c3        1 MOL      0.013424
     12 C6         -3.2300    1.1780    1.8510 c         1 MOL      0.617391
     13 O3         -4.3630    0.9240    2.4110 o         1 MOL     -0.651264
     14 O4         -3.0530    0.9070    0.6530 o         1 MOL     -0.651264
     15 H4         -0.4800    3.3440    3.8510 hn        1 MOL      0.342923
     16 H5         -0.5520    2.1140    1.2070 h1        1 MOL     -0.087848
     17 H6         -2.4480    2.3480    3.4420 hc        1 MOL     -0.014629
     18 H7         -1.4680    0.9550    3.0980 hc        1 MOL     -0.014629
     19 N2         -1.0740    4.4870    0.2860 n         1 MOL     -0.445353
     20 C7         -1.4010    5.7190   -0.3300 c3        1 MOL      0.004278
     21 C8         -2.6180    5.5700   -1.2840 c         1 MOL      0.455793
     22 O5         -3.3600    6.5230   -1.3980 o         1 MOL     -0.530801
     23 C9         -0.1620    6.3380   -0.9910 c3        1 MOL     -0.324465
     24 C10         0.9130    6.6880    0.0320 c3        1 MOL      0.194460
     25 C11         1.9730    7.6000   -0.5820 c3        1 MOL      0.018017
     26 C12         3.1850    7.8500    0.3230 c3        1 MOL     -0.084837
     27 N3          2.8940    8.7720    1.4010 n4        1 MOL     -0.351389
     28 H8         -0.1640    4.1100    0.0450 hn        1 MOL      0.374569
     29 H9         -1.7610    6.3360    0.4900 h1        1 MOL      0.077699
     30 H10        -0.5040    7.3030   -1.3540 hc        1 MOL      0.117905
     31 H11         0.2030    5.7520   -1.8400 hc        1 MOL      0.117905
     32 H12         1.2960    5.7280    0.3750 hc        1 MOL     -0.031585
     33 H13         0.5280    7.1630    0.9350 hc        1 MOL     -0.031585
     34 H14         1.5170    8.5500   -0.8430 hc        1 MOL      0.023187
     35 H15         2.3380    7.2180   -1.5450 hc        1 MOL      0.023187
     36 H16         3.9120    8.2630   -0.3700 hx        1 MOL      0.129753
     37 H17         3.5240    6.9220    0.7880 hx        1 MOL      0.129753
     38 H18         3.8020    8.8770    1.8390 hn        1 MOL      0.328444
     39 H19         2.5890    9.6800    1.0670 hn        1 MOL      0.328444
     40 H20         2.2050    8.4120    2.0430 hn        1 MOL      0.328444
     41 N4         -2.7730    4.4270   -1.9700 n         1 MOL     -0.346175
     42 C13        -3.9790    3.9920   -2.7300 c3        1 MOL      0.096226
     43 C14        -5.1730    3.5490   -1.7760 c         1 MOL      0.408397
     44 O6         -6.2650    3.3660   -2.2430 o         1 MOL     -0.521960
     45 C15        -3.5990    2.8170   -3.6270 c3        1 MOL     -0.386682
     46 C16        -2.9620    1.7400   -2.8450 c         1 MOL      0.806590
     47 O7         -1.7750    1.8660   -2.4550 o         1 MOL     -0.776532
     48 O8         -3.6490    0.7570   -2.5100 o         1 MOL     -0.776532
     49 H21        -2.0100    3.7620   -1.9180 hn        1 MOL      0.259152
     50 H22        -4.4110    4.8330   -3.2610 h1        1 MOL      0.084130
     51 H23        -2.8590    3.1880   -4.3420 hc        1 MOL      0.112163
     52 H24        -4.5660    2.6030   -4.0870 hc        1 MOL      0.112163
     53 N5         -4.9570    3.1810   -0.4830 n         1 MOL      0.046108
     54 C17        -6.0130    2.9300    0.4390 c3        1 MOL     -0.325120
     55 C18        -6.6820    1.5900    0.2850 c         1 MOL      0.601735
     56 O9         -7.8640    1.4820    0.7120 o         1 MOL     -0.592698
     57 H25        -4.0000    3.2780   -0.1710 hn        1 MOL      0.001943
     58 H26        -6.8180    3.6320    0.2520 h1        1 MOL      0.136444
     59 H27        -5.5430    2.9970    1.4260 h1        1 MOL      0.136444
     60 N6         -6.0840    0.5470   -0.3290 n         1 MOL     -0.360663
     61 C19        -6.6150   -0.7860   -0.5580 c3        1 MOL      0.181363
     62 C20        -6.4510   -1.7860    0.6090 c         1 MOL      0.387749
     63 O10        -7.1260   -2.7810    0.6180 o         1 MOL     -0.546232
     64 C21        -6.0830   -1.4770   -1.8610 c3        1 MOL     -0.477380
     65 C22        -4.6600   -1.9670   -1.7630 c         1 MOL      0.746726
     66 N7         -4.2400   -2.8660   -2.5760 n         1 MOL     -0.745963
     67 O11        -3.9570   -1.6600   -0.8580 o         1 MOL     -0.515897
     68 H28        -5.1670    0.7780   -0.6870 hn        1 MOL      0.273401
     69 H29        -7.6960   -0.6960   -0.6540 h1        1 MOL      0.068883
     70 H30        -6.2050   -0.6530   -2.5600 hc        1 MOL      0.136775
     71 H31        -6.7200   -2.3570   -2.0030 hc        1 MOL      0.136775
     72 H32        -4.8920   -3.2550   -3.2380 hn        1 MOL      0.335258
     73 H33        -3.3900   -3.3810   -2.3890 hn        1 MOL      0.335258
     74 N8         -5.6430   -1.4930    1.6220 n         1 MOL     -0.093972
     75 C23        -5.7110   -2.1450    2.9170 c3        1 MOL     -0.253392
     76 C24        -4.4690   -2.9410    3.2200 c         1 MOL      0.465014
     77 O12        -4.2770   -3.5280    4.3140 o         1 MOL     -0.572286
     78 H34        -5.1530   -0.6070    1.6630 hn        1 MOL      0.194073
     79 H35        -6.6380   -2.7090    3.0170 h1        1 MOL      0.131448
     80 H36        -5.7090   -1.3990    3.7150 h1        1 MOL      0.131448
     81 N9         -3.5710   -3.0270    2.2320 n         1 MOL     -0.084413
     82 C25        -2.2610   -3.7120    2.4040 c3        1 MOL     -0.071758
     83 C26        -1.1430   -2.9060    1.6520 c         1 MOL      0.598836
     84 O13        -1.4710   -1.9650    0.9510 o         1 MOL     -0.656357
     85 C27        -2.2830   -5.1230    1.8890 c3        1 MOL     -0.017303
     86 C28        -2.8760   -5.4050    0.5230 ca        1 MOL     -0.029697
     87 C29        -1.9560   -5.5910   -0.5260 ca        1 MOL     -0.077201
     88 C30        -4.2810   -5.5740    0.2830 ca        1 MOL     -0.077201
     89 C31        -2.4580   -6.0770   -1.7510 ca        1 MOL     -0.327269
     90 C32        -4.7810   -6.0420   -0.9750 ca        1 MOL     -0.327269
     91 C33        -3.8460   -6.2160   -2.0000 ca        1 MOL      0.392218
     92 O14        -4.2180   -6.3980   -3.2940 oh        1 MOL     -0.573983
     93 H37        -3.7260   -2.5810    1.3380 hn        1 MOL      0.132160
     94 H38        -1.9990   -3.8400    3.4610 h1        1 MOL      0.067454
     95 H39        -2.8820   -5.7390    2.5520 hc        1 MOL      0.037674
     96 H40        -1.3070   -5.5990    1.8870 hc        1 MOL      0.037674
     97 H41        -0.8950   -5.4270   -0.3780 ha        1 MOL      0.130964
     98 H42        -4.9470   -5.3740    1.1060 ha        1 MOL      0.130964
     99 H43        -1.8170   -6.0740   -2.6200 ha        1 MOL      0.150662
    100 H44        -5.8270   -6.1890   -1.2080 ha        1 MOL      0.150662
    101 H45        -5.1600   -6.5690   -3.4100 ho        1 MOL      0.417010
    102 N10         0.1000   -3.0840    2.1410 n         1 MOL     -0.377803
    103 C34         1.2610   -2.4410    1.5780 c3        1 MOL      0.049153
    104 C35         2.2410   -3.4870    1.0320 c         1 MOL      0.393956
    105 O15         2.1410   -4.6830    1.3450 o         1 MOL     -0.545310
    106 C36         1.9840   -1.4080    2.5290 c3        1 MOL      0.111233
    107 C37         2.7280   -2.0710    3.7230 c3        1 MOL     -0.415138
    108 C38         0.8170   -0.4540    2.9550 c3        1 MOL     -0.323168
    109 C39         3.4600   -1.0240    4.5980 c3        1 MOL      0.010674
    110 H46         0.2590   -3.7010    2.9250 hn        1 MOL      0.278880
    111 H47         0.9590   -1.8820    0.6980 h1        1 MOL     -0.020316
    112 H48         2.7200   -0.8230    1.9810 hc        1 MOL      0.017204
    113 H49         3.4330   -2.8260    3.3650 hc        1 MOL      0.143144
    114 H50         1.9700   -2.5790    4.3310 hc        1 MOL      0.143144
    115 H51         1.2730    0.3150    3.5680 hc        1 MOL      0.122643
    116 H52         0.3970    0.0420    2.0940 hc        1 MOL      0.122643
    117 H53         0.0420   -0.9760    3.5240 hc        1 MOL      0.122643
    118 H54         4.0660   -0.4290    3.9230 hc        1 MOL      0.010387
    119 H55         2.7990   -0.3510    5.1570 hc        1 MOL      0.010387
    120 H56         4.1120   -1.5260    5.3110 hc        1 MOL      0.010387
    121 N11         3.2640   -3.0400    0.3280 n         1 MOL     -0.072205
    122 C40         4.3890   -3.8010   -0.1690 c3        1 MOL      0.023084
    123 C41         5.7110   -3.1070    0.2700 c         1 MOL      0.394540
    124 O16         5.6360   -1.9620    0.7850 o         1 MOL     -0.428745
    125 C42         4.3070   -3.8530   -1.6960 c3        1 MOL     -0.198799
    126 O17         4.7350   -2.5950   -2.1520 oh        1 MOL     -0.511302
    127 H57         3.3390   -2.0760    0.0210 hn        1 MOL      0.111377
    128 H58         4.4080   -4.8200    0.2190 h1        1 MOL      0.066428
    129 H59         3.2770   -4.0860   -1.9570 h1        1 MOL      0.128948
    130 H60         4.9420   -4.5830   -2.1960 h1        1 MOL      0.128948
    131 H61         4.1400   -2.3090   -2.8500 ho        1 MOL      0.412851
    132 N12         6.8910   -3.6290   -0.0640 n         1 MOL     -0.363264
    133 C43         8.1650   -2.9730    0.1280 c3        1 MOL      0.098503
    134 C44         8.4620   -1.6780   -0.6340 c         1 MOL      0.495824
    135 O18         8.9850   -0.7480   -0.0470 o         1 MOL     -0.533987
    136 C45         9.2150   -4.0910   -0.2960 c3        1 MOL     -0.323246
    137 H62         6.9370   -4.5410   -0.4990 hn        1 MOL      0.276898
    138 H63         8.2450   -2.7590    1.2000 h1        1 MOL      0.094237
    139 H64         8.9850   -4.2590   -1.3540 hc        1 MOL      0.097904
    140 H65        10.2130   -3.6980   -0.1290 hc        1 MOL      0.097904
    141 H66         9.0240   -4.9870    0.2860 hc        1 MOL      0.097904
    142 N13         7.8750   -1.4830   -1.8080 n         1 MOL     -0.331711
    143 C46         7.9870   -0.2540   -2.5860 c3        1 MOL      0.062545
    144 C47         7.0770    0.8310   -1.9980 c         1 MOL      0.407366
    145 O19         7.4480    2.0280   -1.9630 o         1 MOL     -0.513140
    146 C48         7.7890   -0.4740   -4.0730 c3        1 MOL     -0.252162
    147 H67         7.3790   -2.2450   -2.2510 hn        1 MOL      0.259578
    148 H68         9.0120    0.0880   -2.4710 h1        1 MOL      0.106044
    149 H69         6.7850   -0.8690   -4.2310 hc        1 MOL      0.073404
    150 H70         7.7860    0.4570   -4.6480 hc        1 MOL      0.073404
    151 H71         8.3550   -1.3330   -4.4090 hc        1 MOL      0.073404
    152 N14         5.8940    0.4790   -1.4260 n         1 MOL     -0.131085
    153 C49         5.0990    1.4330   -0.6570 c3        1 MOL     -0.184513
    154 C50         5.7690    1.8060    0.7040 c         1 MOL      0.435489
    155 O20         5.6360    2.9620    1.1060 o         1 MOL     -0.559889
    156 C51         3.7110    0.7700   -0.4130 c3        1 MOL      0.324660
    157 C52         2.9140    0.6590   -1.6460 c3        1 MOL     -0.125984
    158 C53         1.4500    0.1870   -1.3750 c         1 MOL      0.736389
    159 O21         0.6610    0.9350   -0.7450 o         1 MOL     -0.708335
    160 O22         1.0570   -0.9590   -1.8100 o         1 MOL     -0.708335
    161 H72         5.6270   -0.4940   -1.4010 hn        1 MOL      0.078546
    162 H73         4.8900    2.3790   -1.1760 h1        1 MOL      0.131994
    163 H74         3.2360    1.5180    0.2260 hc        1 MOL     -0.018275
    164 H75         3.7100   -0.2090    0.0780 hc        1 MOL     -0.018275
    165 H76         3.3730   -0.1150   -2.2640 hc        1 MOL     -0.023707
    166 H77         3.0510    1.6110   -2.1460 hc        1 MOL     -0.023707
    167 N15         6.4920    0.8800    1.3370 n         1 MOL     -0.038130
    168 C54         7.2720    1.2160    2.4970 c3        1 MOL     -0.330011
    169 H78         8.2320    0.7010    2.4500 h1        1 MOL      0.115677
    170 H79         7.4380    2.2920    2.5240 h1        1 MOL      0.115677
    171 H80         6.7380    0.9080    3.3960 h1        1 MOL      0.115677
    172 H81         6.5030   -0.0880    1.0770 hn        1 MOL      0.159924
    173 Ca1        -1.7060   -0.3280   -1.1920 Ca        1 MOL      1.743994
    174 O23        -1.4840   -1.0110   -3.9730 oh        1 MOL     -0.844626
    175 H82        -0.9140   -0.7410   -4.7000 ho        1 MOL      0.406731
    176 H83        -2.3590   -1.0370   -4.3510 ho        1 MOL      0.406731
    177 O24        -0.6160   -2.9570   -1.6730 oh        1 MOL     -0.844626
    178 H84         0.0810   -2.3100   -1.7730 ho        1 MOL      0.406731
    179 H85        -0.3060   -3.7160   -2.1840 ho        1 MOL      0.406731
@<TRIPOS>BOND
     1    1    2 1   
     2    1    4 1   
     3    1    5 1   
     4    1    6 1   
     5    2    3 2   
     6    2    7 1   
     7    7    8 1   
     8    7   15 1   
     9    8    9 1   
    10    8   11 1   
    11    8   16 1   
    12    9   10 2   
    13    9   19 1   
    14   11   12 1   
    15   11   17 1   
    16   11   18 1   
    17   12   13 1   
    18   12   14 1   
    19   19   20 1   
    20   19   28 1   
    21   20   21 1   
    22   20   23 1   
    23   20   29 1   
    24   21   22 2   
    25   21   41 1   
    26   23   24 1   
    27   23   30 1   
    28   23   31 1   
    29   24   25 1   
    30   24   32 1   
    31   24   33 1   
    32   25   26 1   
    33   25   34 1   
    34   25   35 1   
    35   26   27 1   
    36   26   36 1   
    37   26   37 1   
    38   27   38 1   
    39   27   39 1   
    40   27   40 1   
    41   41   42 1   
    42   41   49 1   
    43   42   43 1   
    44   42   45 1   
    45   42   50 1   
    46   43   44 2   
    47   43   53 1   
    48   45   46 1   
    49   45   51 1   
    50   45   52 1   
    51   46   47 1   
    52   46   48 1   
    53   53   54 1   
    54   53   57 1   
    55   54   55 1   
    56   54   58 1   
    57   54   59 1   
    58   55   56 2   
    59   55   60 1   
    60   60   61 1   
    61   60   68 1   
    62   61   62 1   
    63   61   64 1   
    64   61   69 1   
    65   62   63 2   
    66   62   74 1   
    67   64   65 1   
    68   64   70 1   
    69   64   71 1   
    70   65   66 1   
    71   65   67 2   
    72   66   72 1   
    73   66   73 1   
    74   74   75 1   
    75   74   78 1   
    76   75   76 1   
    77   75   79 1   
    78   75   80 1   
    79   76   77 2   
    80   76   81 1   
    81   81   82 1   
    82   81   93 1   
    83   82   83 1   
    84   82   85 1   
    85   82   94 1   
    86   83   84 2   
    87   83  102 1   
    88   85   86 1   
    89   85   95 1   
    90   85   96 1   
    91   86   87 ar  
    92   86   88 ar  
    93   87   89 ar  
    94   87   97 1   
    95   88   90 ar  
    96   88   98 1   
    97   89   91 ar  
    98   89   99 1   
    99   90   91 ar  
   100   90  100 1   
   101   91   92 1   
   102   92  101 1   
   103  102  103 1   
   104  102  110 1   
   105  103  104 1   
   106  103  106 1   
   107  103  111 1   
   108  104  105 2   
   109  104  121 1   
   110  106  107 1   
   111  106  108 1   
   112  106  112 1   
   113  107  109 1   
   114  107  113 1   
   115  107  114 1   
   116  108  115 1   
   117  108  116 1   
   118  108  117 1   
   119  109  118 1   
   120  109  119 1   
   121  109  120 1   
   122  121  122 1   
   123  121  127 1   
   124  122  123 1   
   125  122  125 1   
   126  122  128 1   
   127  123  124 2   
   128  123  132 1   
   129  125  126 1   
   130  125  129 1   
   131  125  130 1   
   132  126  131 1   
   133  132  133 1   
   134  132  137 1   
   135  133  134 1   
   136  133  136 1   
   137  133  138 1   
   138  134  135 2   
   139  134  142 1   
   140  136  139 1   
   141  136  140 1   
   142  136  141 1   
   143  142  143 1   
   144  142  147 1   
   145  143  144 1   
   146  143  146 1   
   147  143  148 1   
   148  144  145 2   
   149  144  152 1   
   150  146  149 1   
   151  146  150 1   
   152  146  151 1   
   153  152  153 1   
   154  152  161 1   
   155  153  154 1   
   156  153  156 1   
   157  153  162 1   
   158  154  155 2   
   159  154  167 1   
   160  156  157 1   
   161  156  163 1   
   162  156  164 1   
   163  157  158 1   
   164  157  165 1   
   165  157  166 1   
   166  158  159 1   
   167  158  160 1   
   168  167  168 1   
   169  167  172 1   
   170  168  169 1   
   171  168  170 1   
   172  168  171 1   
   173  174  175 1   
   174  174  176 1   
   175  177  178 1   
   176  177  179 1   
@<TRIPOS>SUBSTRUCTURE
     1 MOL         1 TEMP              0 ****  ****    0 ROOT
