@<TRIPOS>MOLECULE
MOL
  179   176     1     0     0
SMALL
resp


@<TRIPOS>ATOM
      1 C1         -1.0030   -3.5130    6.9900 c3        1 MOL     -0.374302
      2 C2         -0.9700   -3.0760    5.4770 c         1 MOL      0.741512
      3 O1         -2.0190   -3.0250    4.8410 o         1 MOL     -0.559977
      4 H1         -1.7710   -4.2740    7.1310 hc        1 MOL      0.097721
      5 H2         -0.0320   -3.9200    7.2720 hc        1 MOL      0.097721
      6 H3         -1.2310   -2.6490    7.6140 hc        1 MOL      0.097721
      7 N1          0.2440   -2.8760    4.8830 n         1 MOL     -0.671877
      8 C3          0.3330   -2.6030    3.4180 c3        1 MOL      0.016618
      9 C4          0.0850   -3.9520    2.6630 c         1 MOL      0.646551
     10 O2          0.4430   -5.0260    3.1090 o         1 MOL     -0.525945
     11 C5          1.6450   -1.8780    2.9850 c3        1 MOL     -0.058948
     12 C6          1.7110   -1.5230    1.5240 c         1 MOL      0.630189
     13 O3          2.8470   -1.3190    1.0770 o         1 MOL     -0.708129
     14 O4          0.6850   -1.4300    0.7950 o         1 MOL     -0.708129
     15 H4          1.1380   -3.0600    5.3140 hn        1 MOL      0.345587
     16 H5         -0.4940   -1.9600    3.1140 h1        1 MOL      0.049063
     17 H6          2.4870   -2.4820    3.3040 hc        1 MOL      0.051074
     18 H7          1.7240   -0.9780    3.6040 hc        1 MOL      0.051074
     19 N2         -0.4800   -3.8140    1.4310 n         1 MOL     -0.454614
     20 C7         -0.9060   -4.8550    0.5870 c3        1 MOL     -0.032554
     21 C8          0.3330   -5.6270    0.1580 c         1 MOL      0.430966
     22 O5          0.2800   -6.8510    0.0880 o         1 MOL     -0.548450
     23 C9         -1.6250   -4.2980   -0.6800 c3        1 MOL      0.015297
     24 C10        -2.4440   -5.3410   -1.4960 c3        1 MOL     -0.414882
     25 C11        -3.2870   -4.7540   -2.6660 c3        1 MOL      0.166564
     26 C12        -4.2000   -5.7670   -3.3750 c3        1 MOL      0.062721
     27 N3         -5.0010   -5.1020   -4.3540 n4        1 MOL     -0.465857
     28 H8         -0.6860   -2.8500    1.1990 hn        1 MOL      0.253075
     29 H9         -1.5750   -5.5460    1.1030 h1        1 MOL      0.101819
     30 H10        -0.8100   -3.8470   -1.2510 hc        1 MOL      0.118938
     31 H11        -2.2850   -3.5440   -0.2490 hc        1 MOL      0.118938
     32 H12        -3.0280   -5.9710   -0.8090 hc        1 MOL      0.120351
     33 H13        -1.7520   -6.0390   -1.9720 hc        1 MOL      0.120351
     34 H14        -2.6190   -4.2150   -3.3410 hc        1 MOL      0.003756
     35 H15        -3.8930   -3.9600   -2.2330 hc        1 MOL      0.003756
     36 H16        -4.8850   -6.2620   -2.6800 hx        1 MOL      0.070641
     37 H17        -3.5120   -6.5030   -3.7900 hx        1 MOL      0.070641
     38 H18        -5.8520   -4.7700   -3.9170 hn        1 MOL      0.359219
     39 H19        -4.4520   -4.3340   -4.7000 hn        1 MOL      0.359219
     40 H20        -5.2130   -5.7980   -5.0630 hn        1 MOL      0.359219
     41 N4          1.3680   -4.8750   -0.2750 n         1 MOL     -0.184595
     42 C13         2.5610   -5.4200   -0.8990 c3        1 MOL      0.017565
     43 C14         3.9740   -4.9950   -0.2600 c         1 MOL      0.376732
     44 O6          4.9700   -5.7340   -0.4300 o         1 MOL     -0.513492
     45 C15         2.4570   -5.0780   -2.3860 c3        1 MOL     -0.102539
     46 C16         2.3360   -3.5360   -2.6930 c         1 MOL      0.636265
     47 O7          2.1430   -2.7410   -1.7290 o         1 MOL     -0.701316
     48 O8          2.0720   -3.1830   -3.9470 o         1 MOL     -0.701316
     49 H21         1.1650   -3.8980   -0.1450 hn        1 MOL      0.133684
     50 H22         2.5400   -6.5130   -0.8760 h1        1 MOL      0.099957
     51 H23         1.6030   -5.6370   -2.7750 hc        1 MOL      0.043025
     52 H24         3.2580   -5.5020   -2.9860 hc        1 MOL      0.043025
     53 N5          4.0370   -3.8400    0.4520 n         1 MOL     -0.039066
     54 C17         5.1060   -3.4520    1.3510 c3        1 MOL     -0.279270
     55 C18         6.0880   -2.5860    0.5460 c         1 MOL      0.601555
     56 O9          7.2980   -2.6900    0.6290 o         1 MOL     -0.605757
     57 H25         3.2050   -3.2700    0.4540 hn        1 MOL      0.040633
     58 H26         5.6580   -4.3570    1.6130 h1        1 MOL      0.130542
     59 H27         4.6660   -2.8510    2.1470 h1        1 MOL      0.130542
     60 N6          5.6330   -1.6420   -0.2480 n         1 MOL     -0.231918
     61 C19         6.5180   -0.8160   -1.1480 c3        1 MOL     -0.087881
     62 C20         6.8060    0.5910   -0.5460 c         1 MOL      0.359378
     63 O10         7.2770    1.5010   -1.2610 o         1 MOL     -0.502855
     64 C21         5.8270   -0.7980   -2.5270 c3        1 MOL     -0.048308
     65 C22         4.6860    0.2160   -2.5930 c         1 MOL      0.496275
     66 N7          4.7890    1.2080   -3.4210 n         1 MOL     -0.737125
     67 O11         3.7740    0.1800   -1.7920 o         1 MOL     -0.515091
     68 H28         4.6470   -1.4540   -0.1410 hn        1 MOL      0.161877
     69 H29         7.4860   -1.2930   -1.2740 h1        1 MOL      0.175050
     70 H30         5.4790   -1.8160   -2.7190 hc        1 MOL      0.053648
     71 H31         6.5910   -0.6450   -3.2910 hc        1 MOL      0.053648
     72 H32         5.5970    1.2880   -4.0220 hn        1 MOL      0.368759
     73 H33         4.1130    1.9540   -3.4460 hn        1 MOL      0.368759
     74 N8          6.4890    0.8860    0.7120 n         1 MOL     -0.210208
     75 C23         6.6940    2.1630    1.3340 c3        1 MOL     -0.215607
     76 C24         5.3760    2.8260    1.4740 c         1 MOL      0.752310
     77 O12         5.3330    3.4970    2.4960 o         1 MOL     -0.609777
     78 H34         5.9640    0.1840    1.2240 hn        1 MOL      0.224478
     79 H35         7.3290    2.8020    0.7220 h1        1 MOL      0.135890
     80 H36         7.2680    2.0040    2.2530 h1        1 MOL      0.135890
     81 N9          4.2920    2.5560    0.7330 n         1 MOL     -0.542899
     82 C25         3.0490    3.3780    0.7490 c3        1 MOL      0.141412
     83 C26         1.7690    2.5450    0.8750 c         1 MOL      0.406385
     84 O13         1.6920    1.4280    0.3310 o         1 MOL     -0.455698
     85 C27         3.1690    4.3700   -0.3070 c3        1 MOL      0.010983
     86 C28         4.4770    5.1450   -0.5460 ca        1 MOL     -0.062116
     87 C29         5.5130    4.5580   -1.2520 ca        1 MOL     -0.118347
     88 C30         4.7090    6.3260    0.2390 ca        1 MOL     -0.118347
     89 C31         6.7900    5.1560   -1.1810 ca        1 MOL     -0.282352
     90 C32         5.9720    7.0030    0.1160 ca        1 MOL     -0.282352
     91 C33         6.9650    6.4280   -0.6350 ca        1 MOL      0.369670
     92 O14         8.2470    6.9090   -0.7530 oh        1 MOL     -0.496109
     93 H37         4.2550    1.8400    0.0240 hn        1 MOL      0.282581
     94 H38         3.0640    3.8600    1.7220 h1        1 MOL      0.055404
     95 H39         2.3460    5.0420   -0.0490 hc        1 MOL     -0.014293
     96 H40         2.8830    3.9440   -1.2700 hc        1 MOL     -0.014293
     97 H41         5.3880    3.6900   -1.8860 ha        1 MOL      0.140765
     98 H42         3.9310    6.6710    0.9040 ha        1 MOL      0.140765
     99 H43         7.5940    4.7820   -1.7940 ha        1 MOL      0.150591
    100 H44         6.1750    7.8840    0.7180 ha        1 MOL      0.150591
    101 H45         8.3850    7.6190   -0.1300 ho        1 MOL      0.368121
    102 N10         0.7360    3.0960    1.4580 n         1 MOL     -0.309304
    103 C34        -0.6160    2.5280    1.4490 c3        1 MOL      0.056486
    104 C35        -1.6190    3.5970    1.0060 c         1 MOL      0.347877
    105 O15        -1.6910    4.6340    1.6910 o         1 MOL     -0.490262
    106 C36        -0.9410    1.9290    2.8310 c3        1 MOL      0.055937
    107 C37        -2.3590    1.2060    2.9050 c3        1 MOL      0.219297
    108 C38        -0.8100    2.8890    4.0330 c3        1 MOL     -0.381339
    109 C39        -2.6040    0.3170    4.1200 c3        1 MOL     -0.440386
    110 H46         0.8380    4.0250    1.8590 hn        1 MOL      0.285026
    111 H47        -0.8290    1.7060    0.7530 h1        1 MOL      0.009268
    112 H48        -0.2320    1.1140    2.9560 hc        1 MOL      0.058783
    113 H49        -2.4400    0.6280    1.9840 hc        1 MOL     -0.017697
    114 H50        -3.1740    1.9230    2.8240 hc        1 MOL     -0.017697
    115 H51        -1.6230    3.6010    4.0150 hc        1 MOL      0.091643
    116 H52        -0.8810    2.3020    4.9470 hc        1 MOL      0.091643
    117 H53         0.1720    3.3470    3.9710 hc        1 MOL      0.091643
    118 H54        -3.3230   -0.4580    3.8490 hc        1 MOL      0.113818
    119 H55        -1.6970   -0.2590    4.3160 hc        1 MOL      0.113818
    120 H56        -2.7750    0.8280    5.0650 hc        1 MOL      0.113818
    121 N11        -2.4570    3.3420   -0.0290 n         1 MOL     -0.249694
    122 C40        -3.5620    4.2130   -0.3720 c3        1 MOL      0.028102
    123 C41        -4.8720    3.7720    0.2190 c         1 MOL      0.343992
    124 O16        -4.9520    2.6550    0.7240 o         1 MOL     -0.248918
    125 C42        -3.8250    4.2620   -1.8900 c3        1 MOL     -0.061000
    126 O17        -4.3460    3.0710   -2.4850 oh        1 MOL     -0.499327
    127 H57        -2.3880    2.4160   -0.4320 hn        1 MOL      0.216836
    128 H58        -3.4070    5.1980    0.0700 h1        1 MOL      0.074557
    129 H59        -2.8290    4.3830   -2.3160 h1        1 MOL      0.081898
    130 H60        -4.3740    5.1400   -2.2170 h1        1 MOL      0.081898
    131 H61        -3.5720    2.5870   -2.7930 ho        1 MOL      0.410470
    132 N12        -5.9380    4.5370    0.0680 n         1 MOL     -0.329254
    133 C43        -7.3430    4.2240    0.3180 c3        1 MOL     -0.012448
    134 C44        -7.8110    2.8760   -0.3010 c         1 MOL      0.653461
    135 O18        -8.4070    2.0490    0.3820 o         1 MOL     -0.558888
    136 C45        -8.1680    5.3770   -0.1580 c3        1 MOL     -0.193428
    137 H62        -5.7830    5.4350   -0.3580 hn        1 MOL      0.269884
    138 H63        -7.3940    4.1380    1.4010 h1        1 MOL      0.102052
    139 H64        -9.1790    5.2140    0.2310 hc        1 MOL      0.069953
    140 H65        -7.8180    6.3360    0.2260 hc        1 MOL      0.069953
    141 H66        -8.1530    5.5030   -1.2440 hc        1 MOL      0.069953
    142 N13        -7.5500    2.6190   -1.5390 n         1 MOL     -0.518848
    143 C46        -7.8880    1.3360   -2.2180 c3        1 MOL      0.013243
    144 C47        -7.1320    0.1140   -1.6240 c         1 MOL      0.374859
    145 O19        -7.5550   -1.0110   -1.7670 o         1 MOL     -0.538172
    146 C48        -7.6610    1.6340   -3.6720 c3        1 MOL     -0.230792
    147 H67        -6.7500    3.1200   -1.8940 hn        1 MOL      0.315053
    148 H68        -8.9580    1.1310   -2.1660 h1        1 MOL      0.163110
    149 H69        -7.9000    0.9070   -4.4460 hc        1 MOL      0.074478
    150 H70        -8.4250    2.3200   -4.0290 hc        1 MOL      0.074478
    151 H71        -6.6600    2.0280   -3.8580 hc        1 MOL      0.074478
    152 N14        -5.9960    0.3020   -0.9300 n         1 MOL      0.000829
    153 C49        -5.2260   -0.7300   -0.1840 c3        1 MOL     -0.059813
    154 C50        -5.4750   -0.7250    1.3730 c         1 MOL      0.462834
    155 O20        -5.4140   -1.8430    1.8770 o         1 MOL     -0.548209
    156 C51        -3.6790   -0.6840   -0.4010 c3        1 MOL      0.001161
    157 C52        -3.2760   -0.7630   -1.8590 c3        1 MOL      0.122415
    158 C53        -1.8100   -0.5600   -1.8770 c         1 MOL      0.522198
    159 O21        -1.3220    0.4420   -1.3120 o         1 MOL     -0.679867
    160 O22        -1.0200   -1.4380   -2.2820 o         1 MOL     -0.679867
    161 H72        -5.7290    1.2500   -0.7280 hn        1 MOL     -0.062343
    162 H73        -5.5330   -1.7060   -0.5680 h1        1 MOL      0.073134
    163 H74        -3.2160   -1.5040    0.1510 hc        1 MOL      0.019234
    164 H75        -3.3520    0.2900   -0.0310 hc        1 MOL      0.019234
    165 H76        -3.6920   -0.0030   -2.5150 hc        1 MOL     -0.070703
    166 H77        -3.6410   -1.6930   -2.2950 hc        1 MOL     -0.070703
    167 N15        -5.9220    0.3790    1.9290 n         1 MOL     -0.082555
    168 C54        -6.5500    0.4580    3.2850 c3        1 MOL     -0.145280
    169 H78        -7.3830   -0.2430    3.3410 h1        1 MOL      0.075113
    170 H79        -5.8100    0.2030    4.0440 h1        1 MOL      0.075113
    171 H80        -6.9150    1.4710    3.4580 h1        1 MOL      0.075113
    172 H81        -5.7160    1.2660    1.4950 hn        1 MOL      0.058666
    173 Ca1         1.2150   -0.3260   -1.4690 Ca        1 MOL      1.774550
    174 O23         1.6590   -0.5320   -4.0520 oh        1 MOL     -0.895071
    175 H82         2.0190   -0.1760   -4.8650 ho        1 MOL      0.418777
    176 H83         1.7870   -1.4750   -4.1310 ho        1 MOL      0.418777
    177 O24         1.1180    2.1460   -2.4280 oh        1 MOL     -0.895071
    178 H84         1.5780    2.3030   -3.2540 ho        1 MOL      0.418777
    179 H85         0.7060    2.9800   -2.2100 ho        1 MOL      0.418777
@<TRIPOS>BOND
     1    1    2 1   
     2    1    4 1   
     3    1    5 1   
     4    1    6 1   
     5    2    3 2   
     6    2    7 1   
     7    7    8 1   
     8    7   15 1   
     9    8    9 1   
    10    8   11 1   
    11    8   16 1   
    12    9   10 2   
    13    9   19 1   
    14   11   12 1   
    15   11   17 1   
    16   11   18 1   
    17   12   13 1   
    18   12   14 1   
    19   19   20 1   
    20   19   28 1   
    21   20   21 1   
    22   20   23 1   
    23   20   29 1   
    24   21   22 2   
    25   21   41 1   
    26   23   24 1   
    27   23   30 1   
    28   23   31 1   
    29   24   25 1   
    30   24   32 1   
    31   24   33 1   
    32   25   26 1   
    33   25   34 1   
    34   25   35 1   
    35   26   27 1   
    36   26   36 1   
    37   26   37 1   
    38   27   38 1   
    39   27   39 1   
    40   27   40 1   
    41   41   42 1   
    42   41   49 1   
    43   42   43 1   
    44   42   45 1   
    45   42   50 1   
    46   43   44 2   
    47   43   53 1   
    48   45   46 1   
    49   45   51 1   
    50   45   52 1   
    51   46   47 1   
    52   46   48 1   
    53   53   54 1   
    54   53   57 1   
    55   54   55 1   
    56   54   58 1   
    57   54   59 1   
    58   55   56 2   
    59   55   60 1   
    60   60   61 1   
    61   60   68 1   
    62   61   62 1   
    63   61   64 1   
    64   61   69 1   
    65   62   63 2   
    66   62   74 1   
    67   64   65 1   
    68   64   70 1   
    69   64   71 1   
    70   65   66 1   
    71   65   67 2   
    72   66   72 1   
    73   66   73 1   
    74   74   75 1   
    75   74   78 1   
    76   75   76 1   
    77   75   79 1   
    78   75   80 1   
    79   76   77 2   
    80   76   81 1   
    81   81   82 1   
    82   81   93 1   
    83   82   83 1   
    84   82   85 1   
    85   82   94 1   
    86   83   84 2   
    87   83  102 1   
    88   85   86 1   
    89   85   95 1   
    90   85   96 1   
    91   86   87 ar  
    92   86   88 ar  
    93   87   89 ar  
    94   87   97 1   
    95   88   90 ar  
    96   88   98 1   
    97   89   91 ar  
    98   89   99 1   
    99   90   91 ar  
   100   90  100 1   
   101   91   92 1   
   102   92  101 1   
   103  102  103 1   
   104  102  110 1   
   105  103  104 1   
   106  103  106 1   
   107  103  111 1   
   108  104  105 2   
   109  104  121 1   
   110  106  107 1   
   111  106  108 1   
   112  106  112 1   
   113  107  109 1   
   114  107  113 1   
   115  107  114 1   
   116  108  115 1   
   117  108  116 1   
   118  108  117 1   
   119  109  118 1   
   120  109  119 1   
   121  109  120 1   
   122  121  122 1   
   123  121  127 1   
   124  122  123 1   
   125  122  125 1   
   126  122  128 1   
   127  123  124 2   
   128  123  132 1   
   129  125  126 1   
   130  125  129 1   
   131  125  130 1   
   132  126  131 1   
   133  132  133 1   
   134  132  137 1   
   135  133  134 1   
   136  133  136 1   
   137  133  138 1   
   138  134  135 2   
   139  134  142 1   
   140  136  139 1   
   141  136  140 1   
   142  136  141 1   
   143  142  143 1   
   144  142  147 1   
   145  143  144 1   
   146  143  146 1   
   147  143  148 1   
   148  144  145 2   
   149  144  152 1   
   150  146  149 1   
   151  146  150 1   
   152  146  151 1   
   153  152  153 1   
   154  152  161 1   
   155  153  154 1   
   156  153  156 1   
   157  153  162 1   
   158  154  155 2   
   159  154  167 1   
   160  156  157 1   
   161  156  163 1   
   162  156  164 1   
   163  157  158 1   
   164  157  165 1   
   165  157  166 1   
   166  158  159 1   
   167  158  160 1   
   168  167  168 1   
   169  167  172 1   
   170  168  169 1   
   171  168  170 1   
   172  168  171 1   
   173  174  175 1   
   174  174  176 1   
   175  177  178 1   
   176  177  179 1   
@<TRIPOS>SUBSTRUCTURE
     1 MOL         1 TEMP              0 ****  ****    0 ROOT
