@<TRIPOS>MOLECULE
MOL
  172   171     1     0     0
SMALL
resp


@<TRIPOS>ATOM
      1 C1          0.5040   -3.4160    5.9610 c3        1 MOL     -0.325850
      2 C2          0.8640   -3.4980    4.4280 c         1 MOL      0.701356
      3 O1          0.0750   -4.0270    3.6410 o         1 MOL     -0.567043
      4 H1          1.4210   -3.3440    6.5460 hc        1 MOL      0.074436
      5 H2         -0.1120   -2.5360    6.1430 hc        1 MOL      0.074436
      6 H3         -0.0450   -4.3110    6.2550 hc        1 MOL      0.074436
      7 N1          1.9620   -2.8520    4.0570 n         1 MOL     -0.634456
      8 C3          2.5050   -2.6910    2.6570 c3        1 MOL      0.065231
      9 C4          2.6100   -4.0830    1.8690 c         1 MOL      0.636905
     10 O2          3.3450   -5.0060    2.2120 o         1 MOL     -0.591678
     11 C5          3.8460   -2.0040    2.7750 c3        1 MOL     -0.189229
     12 C6          4.2510   -1.2610    1.4970 c         1 MOL      0.816115
     13 O3          5.1430   -0.4610    1.5560 o         1 MOL     -0.703664
     14 O4          3.6200   -1.5210    0.4060 o         1 MOL     -0.703664
     15 H4          2.5420   -2.4330    4.7680 hn        1 MOL      0.330540
     16 H5          1.8160   -2.0410    2.1230 h1        1 MOL      0.111913
     17 H6          4.5810   -2.7200    3.1490 hc        1 MOL      0.030060
     18 H7          3.8100   -1.2580    3.5580 hc        1 MOL      0.030060
     19 N2          1.9050   -4.1220    0.7400 n         1 MOL     -0.608794
     20 C7          1.8120   -5.3040   -0.1620 c3        1 MOL      0.344774
     21 C8          2.7840   -5.2420   -1.3520 c         1 MOL      0.326782
     22 O5          3.0170   -6.2330   -2.0260 o         1 MOL     -0.539469
     23 C9          0.4090   -5.5210   -0.5000 c3        1 MOL     -0.176360
     24 H8          1.3530   -3.3140    0.4970 hn        1 MOL      0.375707
     25 H9          2.0480   -6.2610    0.3140 h1        1 MOL      0.025677
     26 H10        -0.0550   -4.6830   -1.0220 hc        1 MOL      0.036358
     27 H11         0.3170   -6.4420   -1.0730 hc        1 MOL      0.036358
     28 H12        -0.2250   -5.6410    0.3800 hc        1 MOL      0.036358
     29 N3          3.3830   -4.0400   -1.7090 n         1 MOL     -0.136306
     30 C10         4.4140   -3.8990   -2.7860 c3        1 MOL     -0.028010
     31 C11         5.6470   -3.3090   -2.2860 c         1 MOL      0.565175
     32 O6          6.6540   -3.3660   -3.0040 o         1 MOL     -0.594279
     33 C12         3.8680   -3.0950   -3.9920 c3        1 MOL     -0.014150
     34 C13         3.3360   -1.6910   -3.7280 c         1 MOL      0.613042
     35 O7          3.3100   -1.1600   -2.6020 o         1 MOL     -0.689084
     36 O8          2.8080   -1.1010   -4.7150 o         1 MOL     -0.689084
     37 H13         3.1200   -3.1810   -1.2350 hn        1 MOL      0.073640
     38 H14         4.7530   -4.8650   -3.1660 h1        1 MOL      0.085253
     39 H15         3.1030   -3.7800   -4.3650 hc        1 MOL      0.007846
     40 H16         4.5730   -3.0160   -4.8230 hc        1 MOL      0.007846
     41 N4          5.7650   -2.8100   -1.0540 n         1 MOL     -0.414482
     42 C14         7.0450   -2.3000   -0.5070 c3        1 MOL      0.092825
     43 C15         7.4100   -0.8290   -0.7240 c         1 MOL      0.545713
     44 O9          8.5990   -0.5600   -0.8000 o         1 MOL     -0.603589
     45 H17         4.9240   -2.5020   -0.5980 hn        1 MOL      0.153404
     46 H18         7.9190   -2.8670   -0.8460 h1        1 MOL      0.028971
     47 H19         7.0730   -2.3990    0.5840 h1        1 MOL      0.028971
     48 N5          6.4160    0.0210   -0.8990 n         1 MOL     -0.303696
     49 C16         6.7520    1.4020   -1.3270 c3        1 MOL     -0.189568
     50 C17         6.7610    2.4240   -0.2150 c         1 MOL      0.545234
     51 O10         7.2000    3.5210   -0.5070 o         1 MOL     -0.545118
     52 C18         6.0260    1.8430   -2.6060 c3        1 MOL     -0.082931
     53 C19         4.5620    2.0970   -2.3910 c         1 MOL      0.564404
     54 N6          3.9320    2.7860   -3.2530 n         1 MOL     -0.627647
     55 O11         4.0400    1.6460   -1.4080 o         1 MOL     -0.669590
     56 H20         5.4780   -0.3380   -0.7960 hn        1 MOL      0.302227
     57 H21         7.7990    1.4610   -1.6230 h1        1 MOL      0.160939
     58 H22         6.0630    1.1800   -3.4750 hc        1 MOL      0.074952
     59 H23         6.5800    2.6330   -3.1220 hc        1 MOL      0.074952
     60 H24         4.4460    3.1890   -4.0200 hn        1 MOL      0.334247
     61 H25         2.9660    3.0540   -3.1490 hn        1 MOL      0.334247
     62 N7          6.2170    2.1380    1.0010 n         1 MOL     -0.346280
     63 C20         5.9490    3.2090    2.0520 c3        1 MOL     -0.174146
     64 C21         4.8240    4.1950    1.8070 c         1 MOL      0.464609
     65 O12         4.7800    5.3300    2.3720 o         1 MOL     -0.561749
     66 H26         5.7050    1.2760    1.1130 hn        1 MOL      0.261248
     67 H27         6.9000    3.7140    2.2220 h1        1 MOL      0.117312
     68 H28         5.7410    2.6850    2.9930 h1        1 MOL      0.117312
     69 N8          3.8770    3.8350    0.8900 n         1 MOL     -0.284752
     70 C22         2.6660    4.7110    0.5940 c3        1 MOL      0.008998
     71 C23         1.4490    3.8100    0.6870 c         1 MOL      0.444562
     72 O13         1.3600    2.6960    0.1100 o         1 MOL     -0.596255
     73 C24         2.6830    5.4390   -0.7720 c3        1 MOL      0.526584
     74 C25         1.4540    6.2100   -1.0250 c3        1 MOL     -0.428250
     75 O14         3.7820    6.2820   -0.8950 oh        1 MOL     -0.618961
     76 H29         4.0050    2.9240    0.4750 hn        1 MOL      0.259154
     77 H30         2.4570    5.3530    1.4420 h1        1 MOL      0.066279
     78 H31         2.8610    4.6400   -1.4930 h1        1 MOL     -0.057367
     79 H32         4.5250    5.7760   -1.2330 ho        1 MOL      0.363841
     80 H33         1.3120    6.9640   -0.2500 hc        1 MOL      0.112378
     81 H34         1.6310    6.6920   -1.9870 hc        1 MOL      0.112378
     82 H35         0.6360    5.4990   -1.1240 hc        1 MOL      0.112378
     83 N9          0.3640    4.2430    1.3900 n         1 MOL     -0.557619
     84 C26        -0.9060    3.3880    1.5090 c3        1 MOL     -0.001419
     85 C27        -1.5910    3.4560    0.2010 c         1 MOL      0.544077
     86 O15        -2.0250    4.5210   -0.2470 o         1 MOL     -0.567587
     87 C28        -1.8340    3.8490    2.7020 c3        1 MOL      0.069207
     88 C29        -1.0950    3.6980    4.0700 c3        1 MOL      0.056095
     89 C30        -3.1360    3.0680    2.6510 c3        1 MOL     -0.126885
     90 C31        -0.8450    2.3210    4.6100 c3        1 MOL      0.005648
     91 H36         0.4000    5.1440    1.8430 hn        1 MOL      0.320738
     92 H37        -0.5510    2.3760    1.7120 h1        1 MOL      0.134484
     93 H38        -2.0060    4.9290    2.7100 hc        1 MOL      0.017361
     94 H39        -1.6820    4.2640    4.8040 hc        1 MOL     -0.014391
     95 H40        -0.1560    4.2600    4.0550 hc        1 MOL     -0.014391
     96 H41        -2.9570    1.9890    2.6310 hc        1 MOL      0.022475
     97 H42        -3.6270    3.2860    3.5980 hc        1 MOL      0.022475
     98 H43        -3.7660    3.2600    1.7820 hc        1 MOL      0.022475
     99 H44        -0.6720    2.4030    5.6780 hc        1 MOL     -0.013019
    100 H45        -1.7560    1.7550    4.4450 hc        1 MOL     -0.013019
    101 H46         0.0290    1.7870    4.2090 hc        1 MOL     -0.013019
    102 N10        -1.9780    2.2270   -0.2180 n         1 MOL     -0.066233
    103 C32        -2.8790    1.9150   -1.2740 c3        1 MOL      0.035633
    104 C33        -4.2920    1.4780   -0.9180 c         1 MOL      0.461257
    105 O16        -4.5560    1.2720    0.2710 o         1 MOL     -0.425129
    106 C34        -2.2070    0.9120   -2.2550 c3        1 MOL     -0.049957
    107 C35        -0.8990    1.4090   -2.8130 c         1 MOL      0.696059
    108 O17         0.1520    0.8700   -2.3950 o         1 MOL     -0.687189
    109 O18        -0.8940    2.2200   -3.7490 o         1 MOL     -0.687189
    110 H47        -1.6590    1.4420    0.3210 hn        1 MOL     -0.027297
    111 H48        -3.0080    2.8330   -1.8500 h1        1 MOL      0.038466
    112 H49        -2.8930    0.7220   -3.0850 hc        1 MOL     -0.005317
    113 H50        -2.0180   -0.0260   -1.7300 hc        1 MOL     -0.005317
    114 N11        -5.1520    1.2390   -1.9360 n         1 MOL     -0.581031
    115 C36        -6.5170    0.8880   -1.7370 c3        1 MOL      0.291538
    116 C37        -6.8160   -0.3550   -0.7990 c         1 MOL      0.368280
    117 O19        -7.4580   -0.1130    0.2480 o         1 MOL     -0.510844
    118 C38        -7.3590    0.8050   -3.0250 c3        1 MOL     -0.173960
    119 C39        -8.8400    0.8670   -2.7690 ca        1 MOL      0.073704
    120 C40        -9.3300    1.8960   -1.8820 ca        1 MOL     -0.160527
    121 C41        -9.7470    0.0010   -3.4000 ca        1 MOL     -0.160527
    122 C42       -10.6940    1.9350   -1.6790 ca        1 MOL     -0.071793
    123 C43       -11.1060    0.0080   -3.2150 ca        1 MOL     -0.071793
    124 C44       -11.5650    0.9920   -2.3640 ca        1 MOL     -0.154952
    125 H51        -4.8670    1.3870   -2.8940 hn        1 MOL      0.317173
    126 H52        -6.8690    1.7520   -1.1820 h1        1 MOL      0.083014
    127 H53        -7.1520   -0.1020   -3.5830 hc        1 MOL      0.059399
    128 H54        -7.0100    1.5890   -3.6920 hc        1 MOL      0.059399
    129 H55        -8.6330    2.5410   -1.3720 ha        1 MOL      0.107235
    130 H56        -9.2780   -0.7140   -4.0620 ha        1 MOL      0.107235
    131 H57       -11.1340    2.6240   -0.9730 ha        1 MOL      0.106119
    132 H58       -11.7150   -0.5610   -3.8940 ha        1 MOL      0.106119
    133 H59       -12.6330    1.0440   -2.2110 ha        1 MOL      0.097981
    134 N12        -6.2130   -1.5570   -1.0010 n         1 MOL     -0.147217
    135 C45        -6.4860   -2.7080   -0.2230 c3        1 MOL      0.017951
    136 C46        -5.7360   -2.6760    1.1310 c         1 MOL      0.256857
    137 O20        -6.1200   -3.3500    2.1380 o         1 MOL     -0.503534
    138 C47        -6.0780   -3.9700   -1.0760 c3        1 MOL     -0.188152
    139 C48        -4.7960   -3.3200   -1.6310 c3        1 MOL      0.094105
    140 C49        -5.1500   -1.8900   -2.0110 c3        1 MOL     -0.160955
    141 H60        -7.5470   -2.7290    0.0220 h1        1 MOL      0.094238
    142 H61        -5.9230   -4.8430   -0.4570 hc        1 MOL      0.081196
    143 H62        -6.7980   -4.1670   -1.8780 hc        1 MOL      0.081196
    144 H63        -4.1110   -3.2730   -0.7850 hc        1 MOL      0.015311
    145 H64        -4.3540   -3.8760   -2.4500 hc        1 MOL      0.015311
    146 H65        -4.2330   -1.2990   -1.9370 h1        1 MOL      0.079155
    147 H66        -5.6010   -1.8200   -3.0000 h1        1 MOL      0.079155
    148 N13        -4.6500   -1.9160    1.2980 n         1 MOL     -0.018395
    149 C50        -3.8300   -1.6420    2.4910 c3        1 MOL     -0.239931
    150 C51        -4.5930   -0.6830    3.4100 c         1 MOL      0.481039
    151 O21        -4.6740   -0.9210    4.6130 o         1 MOL     -0.548353
    152 C52        -2.5080   -1.0050    2.0850 c3        1 MOL      0.123799
    153 C53        -1.6360   -2.0280    1.3140 c3        1 MOL     -0.111873
    154 C54        -0.3600   -1.4350    0.7090 c         1 MOL      0.655225
    155 O22         0.1580   -0.4390    1.1800 o         1 MOL     -0.751811
    156 O23         0.1080   -1.9960   -0.3220 o         1 MOL     -0.751811
    157 H67        -4.3960   -1.4040    0.4610 hn        1 MOL      0.215023
    158 H68        -3.7340   -2.5860    3.0150 h1        1 MOL      0.150352
    159 H69        -1.9030   -0.6300    2.9180 hc        1 MOL      0.020218
    160 H70        -2.6980   -0.0720    1.5510 hc        1 MOL      0.020218
    161 H71        -2.1870   -2.4460    0.4650 hc        1 MOL      0.041346
    162 H72        -1.4130   -2.8550    1.9830 hc        1 MOL      0.041346
    163 N14        -5.4570    0.2550    2.8560 n         1 MOL     -0.068832
    164 C55        -6.3760    1.0650    3.6260 c3        1 MOL     -0.145261
    165 H73        -7.2530    1.2940    3.0210 h1        1 MOL      0.061531
    166 H74        -6.6830    0.5190    4.5180 h1        1 MOL      0.061531
    167 H75        -5.8860    1.9940    3.9180 h1        1 MOL      0.061531
    168 H76        -5.3500    0.4180    1.8680 hn        1 MOL      0.083334
    169 Ca1         1.8420    0.1090   -0.7440 Ca        1 MOL      1.695870
    170 O24         2.3800    0.9070    2.2030 oh        1 MOL     -0.644144
    171 H77         2.8630    1.2060    2.9700 ho        1 MOL      0.348633
    172 H78         1.5790    0.5130    2.5600 ho        1 MOL      0.348633
@<TRIPOS>BOND
     1    1    2 1   
     2    1    4 1   
     3    1    5 1   
     4    1    6 1   
     5    2    3 2   
     6    2    7 1   
     7    7    8 1   
     8    7   15 1   
     9    8    9 1   
    10    8   11 1   
    11    8   16 1   
    12    9   10 2   
    13    9   19 1   
    14   11   12 1   
    15   11   17 1   
    16   11   18 1   
    17   12   13 1   
    18   12   14 1   
    19   19   20 1   
    20   19   24 1   
    21   20   21 1   
    22   20   23 1   
    23   20   25 1   
    24   21   22 2   
    25   21   29 1   
    26   23   26 1   
    27   23   27 1   
    28   23   28 1   
    29   29   30 1   
    30   29   37 1   
    31   30   31 1   
    32   30   33 1   
    33   30   38 1   
    34   31   32 2   
    35   31   41 1   
    36   33   34 1   
    37   33   39 1   
    38   33   40 1   
    39   34   35 1   
    40   34   36 1   
    41   41   42 1   
    42   41   45 1   
    43   42   43 1   
    44   42   46 1   
    45   42   47 1   
    46   43   44 2   
    47   43   48 1   
    48   48   49 1   
    49   48   56 1   
    50   49   50 1   
    51   49   52 1   
    52   49   57 1   
    53   50   51 2   
    54   50   62 1   
    55   52   53 1   
    56   52   58 1   
    57   52   59 1   
    58   53   54 1   
    59   53   55 2   
    60   54   60 1   
    61   54   61 1   
    62   62   63 1   
    63   62   66 1   
    64   63   64 1   
    65   63   67 1   
    66   63   68 1   
    67   64   65 2   
    68   64   69 1   
    69   69   70 1   
    70   69   76 1   
    71   70   71 1   
    72   70   73 1   
    73   70   77 1   
    74   71   72 2   
    75   71   83 1   
    76   73   74 1   
    77   73   75 1   
    78   73   78 1   
    79   74   80 1   
    80   74   81 1   
    81   74   82 1   
    82   75   79 1   
    83   83   84 1   
    84   83   91 1   
    85   84   85 1   
    86   84   87 1   
    87   84   92 1   
    88   85   86 2   
    89   85  102 1   
    90   87   88 1   
    91   87   89 1   
    92   87   93 1   
    93   88   90 1   
    94   88   94 1   
    95   88   95 1   
    96   89   96 1   
    97   89   97 1   
    98   89   98 1   
    99   90   99 1   
   100   90  100 1   
   101   90  101 1   
   102  102  103 1   
   103  102  110 1   
   104  103  104 1   
   105  103  106 1   
   106  103  111 1   
   107  104  105 2   
   108  104  114 1   
   109  106  107 1   
   110  106  112 1   
   111  106  113 1   
   112  107  108 1   
   113  107  109 1   
   114  114  115 1   
   115  114  125 1   
   116  115  116 1   
   117  115  118 1   
   118  115  126 1   
   119  116  117 2   
   120  116  134 1   
   121  118  119 1   
   122  118  127 1   
   123  118  128 1   
   124  119  120 ar  
   125  119  121 ar  
   126  120  122 ar  
   127  120  129 1   
   128  121  123 ar  
   129  121  130 1   
   130  122  124 ar  
   131  122  131 1   
   132  123  124 ar  
   133  123  132 1   
   134  124  133 1   
   135  134  135 1   
   136  134  140 1   
   137  135  136 1   
   138  135  138 1   
   139  135  141 1   
   140  136  137 2   
   141  136  148 1   
   142  138  139 1   
   143  138  142 1   
   144  138  143 1   
   145  139  140 1   
   146  139  144 1   
   147  139  145 1   
   148  140  146 1   
   149  140  147 1   
   150  148  149 1   
   151  148  157 1   
   152  149  150 1   
   153  149  152 1   
   154  149  158 1   
   155  150  151 2   
   156  150  163 1   
   157  152  153 1   
   158  152  159 1   
   159  152  160 1   
   160  153  154 1   
   161  153  161 1   
   162  153  162 1   
   163  154  155 1   
   164  154  156 1   
   165  163  164 1   
   166  163  168 1   
   167  164  165 1   
   168  164  166 1   
   169  164  167 1   
   170  170  171 1   
   171  170  172 1   
@<TRIPOS>SUBSTRUCTURE
     1 MOL         1 TEMP              0 ****  ****    0 ROOT
