@<TRIPOS>MOLECULE
MOL
  183   181     1     0     0
SMALL
resp


@<TRIPOS>ATOM
      1 C1         -0.4250    1.0450    6.2460 c3        1 MOL     -0.369345
      2 C2         -0.8510    1.1420    4.7790 c         1 MOL      0.727547
      3 O1         -0.0210    1.4020    3.9040 o         1 MOL     -0.545594
      4 H1         -1.2420    0.6260    6.8340 hc        1 MOL      0.089407
      5 H2          0.4500    0.3990    6.3290 hc        1 MOL      0.089407
      6 H3         -0.1810    2.0380    6.6210 hc        1 MOL      0.089407
      7 N1         -2.1930    1.0410    4.4050 n         1 MOL     -0.669639
      8 C3         -2.6810    1.1850    3.0220 c3        1 MOL      0.187799
      9 C4         -3.1230    2.6270    2.7720 c         1 MOL      0.607723
     10 O2         -3.8520    3.1740    3.5890 o         1 MOL     -0.593565
     11 C5         -3.7710    0.1610    2.8200 c3        1 MOL     -0.213355
     12 C6         -4.5770    0.4080    1.6200 c         1 MOL      0.653185
     13 O3         -5.8240    0.2080    1.7190 o         1 MOL     -0.653359
     14 O4         -4.0030    0.8390    0.5530 o         1 MOL     -0.653359
     15 H4         -2.8480    0.9410    5.1690 hn        1 MOL      0.327323
     16 H5         -1.8920    1.0000    2.2980 h1        1 MOL      0.044047
     17 H6         -4.4500    0.0710    3.6660 hc        1 MOL      0.045865
     18 H7         -3.3610   -0.8380    2.6960 hc        1 MOL      0.045865
     19 N2         -2.5940    3.2290    1.7030 n         1 MOL     -0.456911
     20 C7         -2.8850    4.6110    1.2490 c3        1 MOL     -0.047555
     21 C8         -4.1330    4.6840    0.2770 c         1 MOL      0.631249
     22 O5         -4.6670    5.7800    0.1480 o         1 MOL     -0.614431
     23 C9         -1.5890    5.2950    0.7670 c3        1 MOL      0.483607
     24 C10        -0.4590    5.1490    1.7640 c3        1 MOL      0.013516
     25 C11        -1.9110    6.7780    0.7420 c3        1 MOL     -0.485108
     26 C12         0.9530    5.1980    1.1060 c3        1 MOL     -0.133989
     27 H8         -1.8370    2.7680    1.2360 hn        1 MOL      0.226956
     28 H9         -3.2280    5.2280    2.0820 h1        1 MOL      0.033150
     29 H10        -1.4220    4.9360   -0.2490 hc        1 MOL     -0.031635
     30 H11        -0.5180    4.2090    2.3140 hc        1 MOL     -0.014977
     31 H12        -0.6000    5.9750    2.4590 hc        1 MOL     -0.014977
     32 H13        -2.5670    6.9730   -0.1030 hc        1 MOL      0.092136
     33 H14        -2.4070    7.1050    1.6640 hc        1 MOL      0.092136
     34 H15        -1.0120    7.3080    0.4300 hc        1 MOL      0.092136
     35 H16         0.8780    6.0690    0.4550 hc        1 MOL      0.016957
     36 H17         1.6530    5.2690    1.9370 hc        1 MOL      0.016957
     37 H18         1.1730    4.3860    0.4190 hc        1 MOL      0.016957
     38 N3         -4.4630    3.6300   -0.4310 n         1 MOL     -0.544022
     39 C13        -5.4300    3.6540   -1.5990 c3        1 MOL      0.115128
     40 C14        -6.3820    2.4460   -1.5970 c         1 MOL      0.603305
     41 O6         -6.7270    1.8220   -2.5870 o         1 MOL     -0.533173
     42 C15        -4.6290    3.8320   -2.9160 c3        1 MOL     -0.189565
     43 C16        -3.4340    2.8220   -3.1360 c         1 MOL      0.738659
     44 O7         -2.5370    3.0570   -4.0580 o         1 MOL     -0.704307
     45 O8         -3.4700    1.7200   -2.5390 o         1 MOL     -0.704307
     46 H19        -4.0600    2.7490   -0.1500 hn        1 MOL      0.293763
     47 H20        -6.2030    4.4260   -1.5330 h1        1 MOL      0.054040
     48 H21        -4.1680    4.8210   -2.9230 hc        1 MOL      0.036542
     49 H22        -5.3130    3.7900   -3.7650 hc        1 MOL      0.036542
     50 N4         -6.9810    2.1090   -0.4520 n         1 MOL     -0.576348
     51 C17        -8.3600    1.5770   -0.3430 c3        1 MOL     -0.028543
     52 C18        -8.4640    0.0740   -0.6790 c         1 MOL      0.360836
     53 O9         -9.6030   -0.5100   -0.5420 o         1 MOL     -0.608218
     54 H23        -6.5430    2.2550    0.4430 hn        1 MOL      0.333118
     55 H24        -9.0440    2.1330   -0.9840 h1        1 MOL      0.085751
     56 H25        -8.7460    1.8320    0.6390 h1        1 MOL      0.085751
     57 N5         -7.3560   -0.6170   -1.0260 n         1 MOL     -0.029774
     58 C19        -7.3940   -2.0340   -1.3160 c3        1 MOL     -0.115140
     59 C20        -7.0900   -2.9900   -0.0640 c         1 MOL      0.471524
     60 O10        -7.1240   -4.1950   -0.2490 o         1 MOL     -0.560449
     61 C21        -6.4130   -2.3340   -2.4180 c3        1 MOL     -0.122898
     62 C22        -5.0800   -1.6570   -2.1180 c         1 MOL      0.534349
     63 O11        -4.4930   -1.0720   -3.0250 o         1 MOL     -0.623909
     64 O12        -4.6290   -1.7740   -0.9470 o         1 MOL     -0.623909
     65 H26        -6.5440   -0.0150   -1.0870 hn        1 MOL      0.223614
     66 H27        -8.3690   -2.3640   -1.6460 h1        1 MOL      0.103139
     67 H28        -6.7810   -1.9050   -3.3540 hc        1 MOL      0.039473
     68 H29        -6.1890   -3.3990   -2.5330 hc        1 MOL      0.039473
     69 N6         -6.8010   -2.4570    1.1050 n         1 MOL     -0.325083
     70 C23        -6.2640   -3.1470    2.2570 c3        1 MOL      0.075101
     71 C24        -4.9870   -3.9790    2.0280 c         1 MOL      0.414106
     72 O13        -4.7470   -4.9260    2.8080 o         1 MOL     -0.605387
     73 H30        -6.7490   -1.4540    1.2010 hn        1 MOL      0.243316
     74 H31        -7.0340   -3.7440    2.7440 h1        1 MOL      0.028751
     75 H32        -6.0130   -2.3820    2.9840 h1        1 MOL      0.028751
     76 N7         -4.1480   -3.7630    1.0010 n         1 MOL     -0.041893
     77 C25        -2.8930   -4.4150    0.8240 c3        1 MOL     -0.022754
     78 C26        -1.7320   -3.3710    0.9870 c         1 MOL      0.490858
     79 O14        -1.9300   -2.2220    0.6610 o         1 MOL     -0.614698
     80 C27        -2.7780   -5.2280   -0.4920 c3        1 MOL     -0.062205
     81 C28        -2.9760   -4.6560   -1.8850 c3        1 MOL     -0.139676
     82 C29        -1.7970   -3.7830   -2.3130 c         1 MOL      0.600329
     83 N8         -0.7350   -4.4220   -2.6020 n         1 MOL     -0.730907
     84 O15        -1.8060   -2.5720   -2.3400 o         1 MOL     -0.581720
     85 H33        -4.3410   -2.9600    0.4240 hn        1 MOL      0.132326
     86 H34        -2.6950   -5.1590    1.5980 h1        1 MOL      0.046151
     87 H35        -3.5080   -6.0330   -0.4450 hc        1 MOL      0.010538
     88 H36        -1.7860   -5.6890   -0.4980 hc        1 MOL      0.010538
     89 H37        -3.9080   -4.0860   -1.9280 hc        1 MOL      0.071729
     90 H38        -3.0460   -5.4270   -2.6490 hc        1 MOL      0.071729
     91 H39        -0.6750   -5.4250   -2.7140 hn        1 MOL      0.343561
     92 H40         0.0210   -3.8580   -2.9800 hn        1 MOL      0.343561
     93 N9         -0.5740   -3.8150    1.3860 n         1 MOL     -0.264674
     94 C30         0.6100   -2.9970    1.5570 c3        1 MOL      0.058716
     95 C31         1.7020   -3.4020    0.5850 c         1 MOL      0.284132
     96 O16         2.2780   -4.4990    0.7980 o         1 MOL     -0.550994
     97 C32         1.0880   -3.0470    3.0170 c3        1 MOL      0.081984
     98 C33         2.1500   -2.0070    3.3220 c3        1 MOL     -0.176791
     99 C34        -0.1540   -2.7680    3.8850 c3        1 MOL     -0.176791
    100 H41        -0.4940   -4.7990    1.6160 hn        1 MOL      0.239905
    101 H42         0.4010   -1.9920    1.2110 h1        1 MOL      0.123350
    102 H43         1.4500   -4.0370    3.3010 hc        1 MOL      0.005937
    103 H44         1.7400   -0.9950    3.2400 hc        1 MOL      0.035256
    104 H45         2.5060   -2.1390    4.3460 hc        1 MOL      0.035256
    105 H46         2.9580   -2.0720    2.6040 hc        1 MOL      0.035256
    106 H47         0.0410   -2.5860    4.9450 hc        1 MOL      0.035256
    107 H48        -0.6240   -1.8440    3.5700 hc        1 MOL      0.035256
    108 H49        -0.8950   -3.5620    3.8320 hc        1 MOL      0.035256
    109 N10         2.1070   -2.5210   -0.3370 n         1 MOL     -0.122329
    110 C35         3.3580   -2.5720   -1.1130 c3        1 MOL     -0.043264
    111 C36         4.5510   -1.9200   -0.3680 c         1 MOL      0.452703
    112 O17         4.4950   -1.0360    0.4830 o         1 MOL     -0.262485
    113 C37         3.1480   -1.8090   -2.4230 c3        1 MOL     -0.223317
    114 C38         2.0800   -2.4270   -3.2560 c         1 MOL      0.755104
    115 N11         0.9620   -1.7430   -3.3240 n         1 MOL     -0.808158
    116 O18         2.2970   -3.4040   -3.9280 o         1 MOL     -0.622511
    117 H50         1.4970   -1.7240   -0.4440 hn        1 MOL      0.244164
    118 H51         3.6300   -3.5940   -1.3910 h1        1 MOL      0.069208
    119 H52         4.0750   -1.7550   -3.0080 hc        1 MOL      0.053211
    120 H53         2.8070   -0.8170   -2.1420 hc        1 MOL      0.053211
    121 H54         0.7250   -0.9540   -2.7470 hn        1 MOL      0.373728
    122 H55         0.2650   -1.9930   -4.0170 hn        1 MOL      0.373728
    123 N12         5.7820   -2.2050   -0.7840 n         1 MOL     -0.548741
    124 C39         7.0500   -1.7360   -0.0890 c3        1 MOL      0.059014
    125 C40         7.2080   -0.2250   -0.1070 c         1 MOL      0.632336
    126 O19         7.7070    0.3350    0.9120 o         1 MOL     -0.534360
    127 C41         8.2720   -2.3080   -0.7650 c3        1 MOL     -0.016212
    128 C42         9.6340   -1.6980   -0.4560 ca        1 MOL     -0.008431
    129 C43        10.3270   -2.1210    0.7030 ca        1 MOL     -0.229646
    130 C44        10.1760   -0.6290   -1.2320 ca        1 MOL     -0.229646
    131 C45        11.5550   -1.4920    0.9950 ca        1 MOL     -0.114095
    132 C46        11.4200   -0.0220   -0.9870 ca        1 MOL     -0.114095
    133 C47        12.1420   -0.5400    0.1220 ca        1 MOL      0.204484
    134 O20        13.3750   -0.0370    0.4150 oh        1 MOL     -0.488654
    135 H56         5.8380   -2.9690   -1.4420 hn        1 MOL      0.306310
    136 H57         7.0260   -2.1460    0.9250 h1        1 MOL      0.087672
    137 H58         8.1160   -2.0490   -1.8110 hc        1 MOL      0.023904
    138 H59         8.1990   -3.3850   -0.8500 hc        1 MOL      0.023904
    139 H60         9.8020   -2.7760    1.3770 ha        1 MOL      0.145143
    140 H61         9.6330   -0.3000   -2.1050 ha        1 MOL      0.145143
    141 H62        12.1000   -1.7430    1.8810 ha        1 MOL      0.118772
    142 H63        11.8340    0.7460   -1.6140 ha        1 MOL      0.118772
    143 H64        13.5650    0.5780   -0.3040 ho        1 MOL      0.363985
    144 N13         6.6420    0.5410   -1.0910 n         1 MOL     -0.418436
    145 C48         6.5060    2.0400   -1.1170 c3        1 MOL      0.061262
    146 C49         5.5510    2.5000   -0.0240 c         1 MOL      0.284774
    147 O21         5.6780    3.5420    0.6330 o         1 MOL     -0.523261
    148 C50         6.0430    2.6240   -2.4470 c3        1 MOL     -0.046451
    149 C51         4.6560    2.1890   -2.9350 c3        1 MOL     -0.105925
    150 C52         4.3360    3.0560   -4.1950 c         1 MOL      0.695020
    151 O22         4.9650    2.8950   -5.2250 o         1 MOL     -0.717738
    152 O23         3.4150    3.8820   -4.1260 o         1 MOL     -0.717738
    153 H65         6.2230   -0.0000   -1.8360 hn        1 MOL      0.262674
    154 H66         7.4860    2.4930   -0.9450 h1        1 MOL      0.046681
    155 H67         6.7200    2.3000   -3.2310 hc        1 MOL      0.028165
    156 H68         6.0220    3.7090   -2.3960 hc        1 MOL      0.028165
    157 H69         3.8630    2.5350   -2.2700 hc        1 MOL     -0.035527
    158 H70         4.6110    1.1010   -3.0360 hc        1 MOL     -0.035527
    159 N14         4.5430    1.6370    0.3180 n         1 MOL     -0.015550
    160 C53         3.6060    2.0180    1.3880 c3        1 MOL     -0.034654
    161 C54         4.1410    1.6420    2.7480 c         1 MOL      0.443043
    162 O24         3.6220    2.2550    3.6890 o         1 MOL     -0.559444
    163 C55         2.2380    1.3860    1.1170 c3        1 MOL      0.318026
    164 C56         1.6890    1.3930   -0.2750 c3        1 MOL     -0.286856
    165 C57         0.2590    0.8040   -0.3720 c         1 MOL      0.665056
    166 O25        -0.7600    1.5700   -0.3530 o         1 MOL     -0.731466
    167 O26         0.1510   -0.3990   -0.6530 o         1 MOL     -0.731466
    168 H71         4.4440    0.7530   -0.1680 hn        1 MOL      0.106035
    169 H72         3.5590    3.1000    1.4070 h1        1 MOL      0.091270
    170 H73         1.5730    1.9920    1.7430 hc        1 MOL     -0.036645
    171 H74         2.2830    0.3750    1.5180 hc        1 MOL     -0.036645
    172 H75         2.4140    0.8880   -0.9110 hc        1 MOL      0.104719
    173 H76         1.7700    2.4120   -0.6430 hc        1 MOL      0.104719
    174 N15         5.0410    0.6890    2.8640 n         1 MOL     -0.090142
    175 C58         5.6150    0.2350    4.1540 c3        1 MOL     -0.382350
    176 H77         4.8230   -0.1810    4.7770 h1        1 MOL      0.131006
    177 H78         6.3680   -0.5310    3.9680 h1        1 MOL      0.131006
    178 H79         6.0740    1.0810    4.6660 h1        1 MOL      0.131006
    179 H80         5.2100    0.1500    2.0230 hn        1 MOL      0.022409
    180 Ca1        -2.4250   -0.2250   -1.2870 Ca        1 MOL      1.731511
    181 O27        -1.1610    0.4240   -3.6230 oh        1 MOL     -0.906462
    182 H81        -0.3370    0.5630   -4.0860 ho        1 MOL      0.423938
    183 H82        -1.7300    1.1280   -3.9230 ho        1 MOL      0.423938
@<TRIPOS>BOND
     1    1    2 1   
     2    1    4 1   
     3    1    5 1   
     4    1    6 1   
     5    2    3 2   
     6    2    7 1   
     7    7    8 1   
     8    7   15 1   
     9    8    9 1   
    10    8   11 1   
    11    8   16 1   
    12    9   10 2   
    13    9   19 1   
    14   11   12 1   
    15   11   17 1   
    16   11   18 1   
    17   12   13 1   
    18   12   14 1   
    19   19   20 1   
    20   19   27 1   
    21   20   21 1   
    22   20   23 1   
    23   20   28 1   
    24   21   22 2   
    25   21   38 1   
    26   23   24 1   
    27   23   25 1   
    28   23   29 1   
    29   24   26 1   
    30   24   30 1   
    31   24   31 1   
    32   25   32 1   
    33   25   33 1   
    34   25   34 1   
    35   26   35 1   
    36   26   36 1   
    37   26   37 1   
    38   38   39 1   
    39   38   46 1   
    40   39   40 1   
    41   39   42 1   
    42   39   47 1   
    43   40   41 2   
    44   40   50 1   
    45   42   43 1   
    46   42   48 1   
    47   42   49 1   
    48   43   44 1   
    49   43   45 1   
    50   50   51 1   
    51   50   54 1   
    52   51   52 1   
    53   51   55 1   
    54   51   56 1   
    55   52   53 2   
    56   52   57 1   
    57   57   58 1   
    58   57   65 1   
    59   58   59 1   
    60   58   61 1   
    61   58   66 1   
    62   59   60 2   
    63   59   69 1   
    64   61   62 1   
    65   61   67 1   
    66   61   68 1   
    67   62   63 1   
    68   62   64 1   
    69   69   70 1   
    70   69   73 1   
    71   70   71 1   
    72   70   74 1   
    73   70   75 1   
    74   71   72 2   
    75   71   76 1   
    76   76   77 1   
    77   76   85 1   
    78   77   78 1   
    79   77   80 1   
    80   77   86 1   
    81   78   79 2   
    82   78   93 1   
    83   80   81 1   
    84   80   87 1   
    85   80   88 1   
    86   81   82 1   
    87   81   89 1   
    88   81   90 1   
    89   82   83 1   
    90   82   84 2   
    91   83   91 1   
    92   83   92 1   
    93   93   94 1   
    94   93  100 1   
    95   94   95 1   
    96   94   97 1   
    97   94  101 1   
    98   95   96 2   
    99   95  109 1   
   100   97   98 1   
   101   97   99 1   
   102   97  102 1   
   103   98  103 1   
   104   98  104 1   
   105   98  105 1   
   106   99  106 1   
   107   99  107 1   
   108   99  108 1   
   109  109  110 1   
   110  109  117 1   
   111  110  111 1   
   112  110  113 1   
   113  110  118 1   
   114  111  112 2   
   115  111  123 1   
   116  113  114 1   
   117  113  119 1   
   118  113  120 1   
   119  114  115 1   
   120  114  116 2   
   121  115  121 1   
   122  115  122 1   
   123  123  124 1   
   124  123  135 1   
   125  124  125 1   
   126  124  127 1   
   127  124  136 1   
   128  125  126 2   
   129  125  144 1   
   130  127  128 1   
   131  127  137 1   
   132  127  138 1   
   133  128  129 ar  
   134  128  130 ar  
   135  129  131 ar  
   136  129  139 1   
   137  130  132 ar  
   138  130  140 1   
   139  131  133 ar  
   140  131  141 1   
   141  132  133 ar  
   142  132  142 1   
   143  133  134 1   
   144  134  143 1   
   145  144  145 1   
   146  144  153 1   
   147  145  146 1   
   148  145  148 1   
   149  145  154 1   
   150  146  147 2   
   151  146  159 1   
   152  148  149 1   
   153  148  155 1   
   154  148  156 1   
   155  149  150 1   
   156  149  157 1   
   157  149  158 1   
   158  150  151 1   
   159  150  152 1   
   160  159  160 1   
   161  159  168 1   
   162  160  161 1   
   163  160  163 1   
   164  160  169 1   
   165  161  162 2   
   166  161  174 1   
   167  163  164 1   
   168  163  170 1   
   169  163  171 1   
   170  164  165 1   
   171  164  172 1   
   172  164  173 1   
   173  165  166 1   
   174  165  167 1   
   175  174  175 1   
   176  174  179 1   
   177  175  176 1   
   178  175  177 1   
   179  175  178 1   
   180  181  182 1   
   181  181  183 1   
@<TRIPOS>SUBSTRUCTURE
     1 MOL         1 TEMP              0 ****  ****    0 ROOT
