@<TRIPOS>MOLECULE
MOL
  189   185     1     0     0
SMALL
resp


@<TRIPOS>ATOM
      1 C1          1.0010   -3.5970    6.0550 c3        1 MOL     -0.379624
      2 C2          1.0960   -3.3000    4.5920 c         1 MOL      0.757808
      3 O1          0.7280   -2.2120    4.1840 o         1 MOL     -0.620814
      4 H1         -0.0360   -3.5070    6.3760 hc        1 MOL      0.097407
      5 H2          1.3530   -4.6120    6.2430 hc        1 MOL      0.097407
      6 H3          1.6170   -2.8890    6.6100 hc        1 MOL      0.097407
      7 N1          1.8830   -4.0270    3.7790 n         1 MOL     -0.655996
      8 C3          2.4550   -3.6280    2.5040 c3        1 MOL      0.384310
      9 C4          2.5650   -4.8380    1.5310 c         1 MOL      0.405135
     10 O2          2.9870   -5.9380    1.8250 o         1 MOL     -0.541705
     11 C5          3.8150   -3.0050    2.7420 c3        1 MOL     -0.236753
     12 C6          4.6100   -2.5350    1.5150 c         1 MOL      0.774571
     13 O3          4.0190   -2.3290    0.4420 o         1 MOL     -0.694941
     14 O4          5.8410   -2.3290    1.7510 o         1 MOL     -0.694941
     15 H4          2.1790   -4.8620    4.2450 hn        1 MOL      0.298315
     16 H5          1.7760   -2.9070    2.0420 h1        1 MOL     -0.003131
     17 H6          4.4610   -3.6910    3.2920 hc        1 MOL      0.033160
     18 H7          3.6700   -2.1430    3.3960 hc        1 MOL      0.033160
     19 N2          2.1240   -4.5650    0.2500 n         1 MOL     -0.251654
     20 C7          2.2780   -5.5000   -0.8960 c3        1 MOL      0.083088
     21 C8          3.5320   -5.1800   -1.7200 c         1 MOL      0.564200
     22 O5          4.0280   -6.0890   -2.3820 o         1 MOL     -0.590573
     23 C9          0.9370   -5.6310   -1.6600 c3        1 MOL      0.295096
     24 C10        -0.2890   -6.0140   -0.7630 c3        1 MOL      0.130626
     25 C11         1.0580   -6.6420   -2.7560 c3        1 MOL     -0.329413
     26 C12        -0.1160   -7.3020    0.0390 c3        1 MOL     -0.156982
     27 H8          1.9700   -3.5790    0.0780 hn        1 MOL      0.058357
     28 H9          2.3380   -6.4860   -0.4370 h1        1 MOL     -0.000013
     29 H10         0.6750   -4.6480   -2.0750 hc        1 MOL     -0.044320
     30 H11        -1.1500   -6.0290   -1.4260 hc        1 MOL     -0.051402
     31 H12        -0.4770   -5.1840   -0.0850 hc        1 MOL     -0.051402
     32 H13         1.7430   -6.2250   -3.4990 hc        1 MOL      0.062243
     33 H14         1.4010   -7.5970   -2.3520 hc        1 MOL      0.062243
     34 H15         0.0420   -6.8300   -3.1120 hc        1 MOL      0.062243
     35 H16         0.6910   -7.1360    0.7530 hc        1 MOL      0.023528
     36 H17        -0.9850   -7.4570    0.6650 hc        1 MOL      0.023528
     37 H18        -0.0060   -8.1560   -0.6400 hc        1 MOL      0.023528
     38 N3          4.0010   -3.9150   -1.7300 n         1 MOL     -0.451654
     39 C13         4.8160   -3.4060   -2.8970 c3        1 MOL     -0.044419
     40 C14         6.0190   -2.4050   -2.5830 c         1 MOL      0.421363
     41 O6          6.7110   -2.0610   -3.5450 o         1 MOL     -0.536249
     42 C15         3.8730   -2.8070   -3.9200 c3        1 MOL     -0.150829
     43 C16         3.2420   -1.5160   -3.5010 c         1 MOL      0.807933
     44 O7          3.6800   -0.8720   -2.4900 o         1 MOL     -0.720574
     45 O8          2.2580   -1.1200   -4.1220 o         1 MOL     -0.720574
     46 H19         3.6390   -3.2760   -1.0310 hn        1 MOL      0.295915
     47 H20         5.3050   -4.2790   -3.3330 h1        1 MOL      0.107698
     48 H21         3.0980   -3.4890   -4.2480 hc        1 MOL      0.043110
     49 H22         4.4220   -2.4900   -4.8070 hc        1 MOL      0.043110
     50 N4          6.3500   -2.1360   -1.3350 n         1 MOL     -0.204472
     51 C17         7.4760   -1.2930   -0.9970 c3        1 MOL     -0.209385
     52 C18         7.5170    0.0280   -1.6720 c         1 MOL      0.489814
     53 O9          8.6260    0.5900   -1.7940 o         1 MOL     -0.611297
     54 H23         5.7210   -2.4180   -0.5910 hn        1 MOL      0.179027
     55 H24         8.3750   -1.8780   -1.2000 h1        1 MOL      0.108018
     56 H25         7.3400   -1.1260    0.0740 h1        1 MOL      0.108018
     57 N5          6.3680    0.5860   -2.1270 n         1 MOL     -0.147220
     58 C19         6.3290    1.9550   -2.6450 c3        1 MOL      0.048006
     59 C20         6.4230    3.0220   -1.5140 c         1 MOL      0.446381
     60 O10         6.3460    4.1750   -1.8300 o         1 MOL     -0.523134
     61 C21         5.0960    2.2570   -3.4720 c3        1 MOL     -0.304007
     62 C22         3.6840    2.2060   -2.6940 c         1 MOL      0.827240
     63 O11         3.7030    1.9000   -1.4910 o         1 MOL     -0.735793
     64 O12         2.5990    2.6510   -3.2790 o         1 MOL     -0.735793
     65 H26         5.5370    0.0300   -2.2270 hn        1 MOL      0.174536
     66 H27         7.2690    2.1470   -3.1690 h1        1 MOL      0.062321
     67 H28         5.0800    1.5530   -4.3090 hc        1 MOL      0.070608
     68 H29         5.1550    3.2700   -3.8530 hc        1 MOL      0.070608
     69 N6          6.4670    2.6170   -0.2010 n         1 MOL     -0.246394
     70 C23         6.7770    3.4950    0.9510 c3        1 MOL     -0.104636
     71 C24         5.6530    4.3410    1.4950 c         1 MOL      0.434639
     72 O13         5.9290    5.3330    2.2080 o         1 MOL     -0.575592
     73 H30         6.6690    1.6380   -0.0800 hn        1 MOL      0.220078
     74 H31         7.6530    4.0690    0.6660 h1        1 MOL      0.075062
     75 H32         7.1370    2.9280    1.8070 h1        1 MOL      0.075062
     76 N7          4.4040    4.0060    1.1490 n         1 MOL     -0.142663
     77 C25         3.1260    4.5700    1.6050 c3        1 MOL     -0.055560
     78 C26         2.1380    3.3940    1.7720 c         1 MOL      0.382548
     79 O14         2.3190    2.3330    1.0980 o         1 MOL     -0.487590
     80 C27         2.6020    5.5640    0.5730 c3        1 MOL     -0.098025
     81 C28         3.5820    6.7410    0.3640 c3        1 MOL     -0.163317
     82 C29         2.8610    7.8830   -0.4460 c         1 MOL      0.596698
     83 N8          2.9620    7.8850   -1.7990 n         1 MOL     -0.797902
     84 O15         2.1880    8.6850    0.1630 o         1 MOL     -0.569374
     85 H33         4.2480    3.1830    0.5820 hn        1 MOL      0.165975
     86 H34         3.1830    5.0030    2.6070 h1        1 MOL      0.061945
     87 H35         1.5760    5.8030    0.8740 hc        1 MOL      0.094178
     88 H36         2.4620    5.1480   -0.4320 hc        1 MOL      0.094178
     89 H37         4.4540    6.4500   -0.2300 hc        1 MOL      0.085354
     90 H38         3.9730    7.1340    1.2990 hc        1 MOL      0.085354
     91 H39         3.5120    7.2590   -2.3690 hn        1 MOL      0.363146
     92 H40         2.4070    8.5960   -2.2670 hn        1 MOL      0.363146
     93 N9          1.1000    3.6290    2.5340 n         1 MOL     -0.364086
     94 C30        -0.0430    2.6900    2.8100 c3        1 MOL     -0.079519
     95 C31        -1.2010    3.0530    1.8770 c         1 MOL      0.496977
     96 O16        -1.7370    4.1480    1.9150 o         1 MOL     -0.610269
     97 C32        -0.4880    2.5030    4.2570 c3        1 MOL      0.258758
     98 C33        -1.8430    1.8460    4.3880 c3        1 MOL     -0.261806
     99 C34         0.6080    1.8010    5.0450 c3        1 MOL     -0.261806
    100 H41         0.9710    4.5340    2.9800 hn        1 MOL      0.280508
    101 H42         0.3160    1.6830    2.5680 h1        1 MOL      0.276454
    102 H43        -0.5390    3.5360    4.6200 hc        1 MOL     -0.045039
    103 H44        -2.6260    2.4790    3.9700 hc        1 MOL      0.053401
    104 H45        -1.7240    0.8840    3.8880 hc        1 MOL      0.053401
    105 H46        -2.0000    1.7800    5.4640 hc        1 MOL      0.053401
    106 H47         0.7980    0.8180    4.6040 hc        1 MOL      0.053401
    107 H48         1.5560    2.3320    5.0130 hc        1 MOL      0.053401
    108 H49         0.2750    1.7550    6.0790 hc        1 MOL      0.053401
    109 N10        -1.6770    2.2100    1.0410 n         1 MOL     -0.082604
    110 C35        -2.8380    2.3560    0.1380 c3        1 MOL      0.016575
    111 C36        -4.1320    1.9890    0.8690 c         1 MOL      0.265749
    112 O17        -4.2710    1.1070    1.7070 o         1 MOL     -0.336637
    113 C37        -2.6300    1.4110   -0.9910 c3        1 MOL     -0.134751
    114 C38        -3.7930    1.3520   -1.9670 c         1 MOL      0.667607
    115 N11        -3.9700    2.4560   -2.6330 n         1 MOL     -0.761829
    116 O18        -4.4680    0.3010   -2.1140 o         1 MOL     -0.502966
    117 H50        -1.1800    1.3410    1.0660 hn        1 MOL      0.024029
    118 H51        -3.0290    3.3500   -0.2730 h1        1 MOL      0.051401
    119 H52        -2.5190    0.3850   -0.6440 hc        1 MOL      0.084478
    120 H53        -1.7930    1.6950   -1.6240 hc        1 MOL      0.084478
    121 H54        -3.3620    3.2470   -2.4790 hn        1 MOL      0.363424
    122 H55        -4.7220    2.5530   -3.3040 hn        1 MOL      0.363424
    123 N12        -5.3330    2.5060    0.4190 n         1 MOL     -0.179321
    124 C39        -6.5580    2.2140    1.0590 c3        1 MOL      0.024912
    125 C40        -7.0620    0.7100    0.9010 c         1 MOL      0.660144
    126 O19        -7.9050    0.2980    1.6970 o         1 MOL     -0.624988
    127 C41        -7.5830    3.2300    0.6050 c3        1 MOL      0.056954
    128 C42        -8.2610    2.9700   -0.7160 ca        1 MOL      0.052290
    129 C43        -9.2090    1.8710   -0.8010 ca        1 MOL     -0.266050
    130 C44        -7.7680    3.5870   -1.8660 ca        1 MOL     -0.266050
    131 C45        -9.8580    1.5210   -2.0610 ca        1 MOL     -0.154323
    132 C46        -8.3120    3.1480   -3.1320 ca        1 MOL     -0.154323
    133 C47        -9.3500    2.1930   -3.2180 ca        1 MOL      0.197608
    134 O20        -9.7300    1.8490   -4.4680 oh        1 MOL     -0.510567
    135 H56        -5.3460    3.2220   -0.2930 hn        1 MOL      0.169543
    136 H57        -6.4980    2.3380    2.1440 h1        1 MOL      0.028241
    137 H58        -7.1430    4.2330    0.5300 hc        1 MOL     -0.023709
    138 H59        -8.3670    3.2240    1.3680 hc        1 MOL     -0.023709
    139 H60        -9.5070    1.3740    0.1070 ha        1 MOL      0.154598
    140 H61        -7.1360    4.4540   -1.7720 ha        1 MOL      0.154598
    141 H62       -10.6990    0.8360   -2.0690 ha        1 MOL      0.133679
    142 H63        -7.9420    3.6400   -4.0070 ha        1 MOL      0.133679
    143 H64       -10.5320    1.3260   -4.5430 ho        1 MOL      0.416971
    144 N13        -6.4270   -0.1300    0.0500 n         1 MOL     -0.079294
    145 C48        -6.7040   -1.6050    0.0540 c3        1 MOL     -0.214076
    146 C49        -5.6760   -2.3390    0.8880 c         1 MOL      0.414019
    147 O21        -6.0380   -3.2440    1.5970 o         1 MOL     -0.490666
    148 C50        -6.8420   -2.1060   -1.4100 c3        1 MOL      0.032329
    149 C51        -8.1120   -1.5000   -2.1110 c3        1 MOL     -0.130107
    150 C52        -8.4470   -2.1920   -3.4320 c         1 MOL      0.610908
    151 O22        -8.8620   -3.3920   -3.3590 o         1 MOL     -0.714776
    152 O23        -8.1530   -1.6970   -4.5700 o         1 MOL     -0.714776
    153 H65        -5.7500    0.2990   -0.5630 hn        1 MOL      0.011758
    154 H66        -7.6790   -1.8400    0.4730 h1        1 MOL      0.136411
    155 H67        -6.9490   -3.1870   -1.3120 hc        1 MOL      0.048043
    156 H68        -5.9580   -1.8550   -2.0030 hc        1 MOL      0.048043
    157 H69        -8.0890   -0.4270   -2.2790 hc        1 MOL      0.021137
    158 H70        -8.9050   -1.7340   -1.3990 hc        1 MOL      0.021137
    159 N14        -4.4310   -1.8960    0.8800 n         1 MOL     -0.223694
    160 C53        -3.3770   -2.4560    1.7360 c3        1 MOL     -0.020627
    161 C54        -3.8090   -2.2980    3.1750 c         1 MOL      0.320577
    162 O24        -3.7040   -3.3070    3.8280 o         1 MOL     -0.527700
    163 C55        -2.0470   -1.6850    1.5820 c3        1 MOL      0.177293
    164 C56        -1.3680   -2.1310    0.3160 c3        1 MOL     -0.363609
    165 C57        -0.0590   -1.3680    0.1600 c         1 MOL      0.965930
    166 O25         0.1180   -0.2000    0.5160 o         1 MOL     -0.781463
    167 O26         0.9300   -1.8660   -0.3290 o         1 MOL     -0.781463
    168 H71        -4.2860   -1.1410    0.2320 hn        1 MOL      0.119842
    169 H72        -3.1830   -3.4940    1.4840 h1        1 MOL      0.120411
    170 H73        -1.4600   -1.9620    2.4550 hc        1 MOL     -0.035747
    171 H74        -2.0440   -0.6000    1.6770 hc        1 MOL     -0.035747
    172 H75        -1.9370   -1.9130   -0.5780 hc        1 MOL      0.090559
    173 H76        -1.1140   -3.1900    0.3850 hc        1 MOL      0.090559
    174 N15        -4.3830   -1.1340    3.5800 n         1 MOL      0.010502
    175 C58        -5.0290   -0.9120    4.8730 c3        1 MOL     -0.132908
    176 H77        -6.0840   -0.6870    4.7160 h1        1 MOL      0.056351
    177 H78        -4.9360   -1.8100    5.4840 h1        1 MOL      0.056351
    178 H79        -4.5510   -0.0740    5.3800 h1        1 MOL      0.056351
    179 H80        -4.5020   -0.4390    2.8650 hn        1 MOL      0.048937
    180 Ca1         2.6940   -0.0510   -0.1550 Ca        1 MOL      1.724893
    181 O27         2.1810   -0.4220    2.4970 oh        1 MOL     -0.900556
    182 H81         1.3520   -0.9140    2.5330 ho        1 MOL      0.424089
    183 H82         2.4870   -0.4320    3.4030 ho        1 MOL      0.424089
    184 O28         5.0360    0.2390    1.2280 oh        1 MOL     -0.900556
    185 H83         5.5890   -0.5390    1.2680 ho        1 MOL      0.424089
    186 H84         4.7790    0.3980    2.1400 ho        1 MOL      0.424089
    187 O29         0.9110    0.8910   -2.1260 oh        1 MOL     -0.900556
    188 H85         0.7540    0.3250   -2.8850 ho        1 MOL      0.424089
    189 H86         1.4670    1.5890   -2.4520 ho        1 MOL      0.424089
@<TRIPOS>BOND
     1    1    2 1   
     2    1    4 1   
     3    1    5 1   
     4    1    6 1   
     5    2    3 2   
     6    2    7 1   
     7    7    8 1   
     8    7   15 1   
     9    8    9 1   
    10    8   11 1   
    11    8   16 1   
    12    9   10 2   
    13    9   19 1   
    14   11   12 1   
    15   11   17 1   
    16   11   18 1   
    17   12   13 1   
    18   12   14 1   
    19   19   20 1   
    20   19   27 1   
    21   20   21 1   
    22   20   23 1   
    23   20   28 1   
    24   21   22 2   
    25   21   38 1   
    26   23   24 1   
    27   23   25 1   
    28   23   29 1   
    29   24   26 1   
    30   24   30 1   
    31   24   31 1   
    32   25   32 1   
    33   25   33 1   
    34   25   34 1   
    35   26   35 1   
    36   26   36 1   
    37   26   37 1   
    38   38   39 1   
    39   38   46 1   
    40   39   40 1   
    41   39   42 1   
    42   39   47 1   
    43   40   41 2   
    44   40   50 1   
    45   42   43 1   
    46   42   48 1   
    47   42   49 1   
    48   43   44 1   
    49   43   45 1   
    50   50   51 1   
    51   50   54 1   
    52   51   52 1   
    53   51   55 1   
    54   51   56 1   
    55   52   53 2   
    56   52   57 1   
    57   57   58 1   
    58   57   65 1   
    59   58   59 1   
    60   58   61 1   
    61   58   66 1   
    62   59   60 2   
    63   59   69 1   
    64   61   62 1   
    65   61   67 1   
    66   61   68 1   
    67   62   63 1   
    68   62   64 1   
    69   69   70 1   
    70   69   73 1   
    71   70   71 1   
    72   70   74 1   
    73   70   75 1   
    74   71   72 2   
    75   71   76 1   
    76   76   77 1   
    77   76   85 1   
    78   77   78 1   
    79   77   80 1   
    80   77   86 1   
    81   78   79 2   
    82   78   93 1   
    83   80   81 1   
    84   80   87 1   
    85   80   88 1   
    86   81   82 1   
    87   81   89 1   
    88   81   90 1   
    89   82   83 1   
    90   82   84 2   
    91   83   91 1   
    92   83   92 1   
    93   93   94 1   
    94   93  100 1   
    95   94   95 1   
    96   94   97 1   
    97   94  101 1   
    98   95   96 2   
    99   95  109 1   
   100   97   98 1   
   101   97   99 1   
   102   97  102 1   
   103   98  103 1   
   104   98  104 1   
   105   98  105 1   
   106   99  106 1   
   107   99  107 1   
   108   99  108 1   
   109  109  110 1   
   110  109  117 1   
   111  110  111 1   
   112  110  113 1   
   113  110  118 1   
   114  111  112 2   
   115  111  123 1   
   116  113  114 1   
   117  113  119 1   
   118  113  120 1   
   119  114  115 1   
   120  114  116 2   
   121  115  121 1   
   122  115  122 1   
   123  123  124 1   
   124  123  135 1   
   125  124  125 1   
   126  124  127 1   
   127  124  136 1   
   128  125  126 2   
   129  125  144 1   
   130  127  128 1   
   131  127  137 1   
   132  127  138 1   
   133  128  129 ar  
   134  128  130 ar  
   135  129  131 ar  
   136  129  139 1   
   137  130  132 ar  
   138  130  140 1   
   139  131  133 ar  
   140  131  141 1   
   141  132  133 ar  
   142  132  142 1   
   143  133  134 1   
   144  134  143 1   
   145  144  145 1   
   146  144  153 1   
   147  145  146 1   
   148  145  148 1   
   149  145  154 1   
   150  146  147 2   
   151  146  159 1   
   152  148  149 1   
   153  148  155 1   
   154  148  156 1   
   155  149  150 1   
   156  149  157 1   
   157  149  158 1   
   158  150  151 1   
   159  150  152 1   
   160  159  160 1   
   161  159  168 1   
   162  160  161 1   
   163  160  163 1   
   164  160  169 1   
   165  161  162 2   
   166  161  174 1   
   167  163  164 1   
   168  163  170 1   
   169  163  171 1   
   170  164  165 1   
   171  164  172 1   
   172  164  173 1   
   173  165  166 1   
   174  165  167 1   
   175  174  175 1   
   176  174  179 1   
   177  175  176 1   
   178  175  177 1   
   179  175  178 1   
   180  181  182 1   
   181  181  183 1   
   182  184  185 1   
   183  184  186 1   
   184  187  188 1   
   185  187  189 1   
@<TRIPOS>SUBSTRUCTURE
     1 MOL         1 TEMP              0 ****  ****    0 ROOT
