@<TRIPOS>MOLECULE
MOL
  182   178     1     0     0
SMALL
resp


@<TRIPOS>ATOM
      1 C1          2.5430    2.3640    5.1210 c3        1 MOL     -0.329879
      2 C2          1.8390    2.0360    3.7570 c         1 MOL      0.500405
      3 O1          2.5310    1.7580    2.8470 o         1 MOL     -0.427101
      4 H1          1.8400    2.8770    5.7770 hc        1 MOL      0.086425
      5 H2          2.8710    1.4380    5.5930 hc        1 MOL      0.086425
      6 H3          3.4060    3.0060    4.9400 hc        1 MOL      0.086425
      7 N1          0.4860    2.0380    3.7510 n         1 MOL     -0.424790
      8 C3         -0.4090    1.9570    2.5780 c3        1 MOL      0.081633
      9 C4         -0.5430    3.4000    2.0020 c         1 MOL      0.437729
     10 O2         -1.5680    4.1070    2.2020 o         1 MOL     -0.460342
     11 C5         -1.7540    1.3670    2.8640 c3        1 MOL     -0.242695
     12 C6         -2.7140    1.4770    1.6560 c         1 MOL      0.686201
     13 O3         -2.2350    1.6440    0.5030 o         1 MOL     -0.620497
     14 O4         -3.9360    1.2670    1.9320 o         1 MOL     -0.620497
     15 H4          0.0390    2.1330    4.6540 hn        1 MOL      0.303420
     16 H5          0.0860    1.3290    1.8370 h1        1 MOL      0.010254
     17 H6         -2.2400    1.8130    3.7310 hc        1 MOL      0.065759
     18 H7         -1.6270    0.3100    3.0820 hc        1 MOL      0.065759
     19 N2          0.4940    3.7390    1.1680 n         1 MOL     -0.314687
     20 C7          0.6230    5.1200    0.6320 c3        1 MOL      0.060364
     21 C8         -0.4190    5.6440   -0.3900 c         1 MOL      0.444475
     22 O5         -0.9330    6.7740   -0.1940 o         1 MOL     -0.555944
     23 C9          2.0320    5.2170    0.1060 c3        1 MOL     -0.310148
     24 C10         3.1030    4.9110    1.1180 c3        1 MOL      0.359929
     25 C11         4.5500    5.2370    0.8380 c3        1 MOL     -0.184216
     26 C12         5.3430    5.0970    2.1210 c3        1 MOL     -0.029149
     27 N3          5.0020    6.1250    3.2030 n4        1 MOL     -0.310172
     28 H8          1.0560    2.9540    0.8530 hn        1 MOL      0.108371
     29 H9          0.5950    5.8240    1.4590 h1        1 MOL      0.073379
     30 H10         2.1440    6.2710   -0.1400 hc        1 MOL      0.088161
     31 H11         2.2250    4.6020   -0.7740 hc        1 MOL      0.088161
     32 H12         3.1300    3.8450    1.3530 hc        1 MOL     -0.081620
     33 H13         2.8400    5.4050    2.0520 hc        1 MOL     -0.081620
     34 H14         4.6190    6.2390    0.4130 hc        1 MOL      0.077030
     35 H15         4.8380    4.4270    0.1580 hc        1 MOL      0.077030
     36 H16         6.4220    5.1760    1.9770 hx        1 MOL      0.122334
     37 H17         5.2050    4.0590    2.4230 hx        1 MOL      0.122334
     38 H18         4.2170    5.7890    3.7370 hn        1 MOL      0.309929
     39 H19         5.6170    6.3100    3.9750 hn        1 MOL      0.309929
     40 H20         4.7510    7.0490    2.8730 hn        1 MOL      0.309929
     41 N4         -0.9450    4.8660   -1.3280 n         1 MOL     -0.275617
     42 C13        -2.0820    5.2000   -2.1780 c3        1 MOL      0.010716
     43 C14        -3.5020    4.9010   -1.5580 c         1 MOL      0.367109
     44 O6         -4.4950    5.1810   -2.2610 o         1 MOL     -0.507323
     45 C15        -1.9350    4.5200   -3.5050 c3        1 MOL     -0.191095
     46 C16        -1.9480    2.9980   -3.5880 c         1 MOL      0.764514
     47 O7         -2.1600    2.4570   -4.6470 o         1 MOL     -0.710252
     48 O8         -1.5430    2.2500   -2.6730 o         1 MOL     -0.710252
     49 H21        -0.6410    3.9050   -1.2530 hn        1 MOL      0.182813
     50 H22        -2.1180    6.2600   -2.4410 h1        1 MOL      0.125838
     51 H23        -1.0100    4.8770   -3.9750 hc        1 MOL      0.057663
     52 H24        -2.7630    4.8750   -4.1080 hc        1 MOL      0.057663
     53 N5         -3.5840    4.3890   -0.3400 n         1 MOL      0.009561
     54 C17        -4.8260    4.4180    0.4380 c3        1 MOL     -0.100370
     55 C18        -5.8980    3.5650   -0.1580 c         1 MOL      0.432612
     56 O9         -7.0690    3.9790   -0.1670 o         1 MOL     -0.546534
     57 H25        -2.7910    3.9470    0.1010 hn        1 MOL      0.028635
     58 H26        -5.1220    5.4690    0.4640 h1        1 MOL      0.097562
     59 H27        -4.7120    4.1990    1.4950 h1        1 MOL      0.097562
     60 N6         -5.5250    2.3860   -0.6980 n         1 MOL     -0.179949
     61 C19        -6.4020    1.4400   -1.4170 c3        1 MOL     -0.018877
     62 C20        -6.7540    0.1930   -0.6190 c         1 MOL      0.341774
     63 O10        -7.4510   -0.6210   -1.2070 o         1 MOL     -0.527092
     64 C21        -5.5890    1.0860   -2.6610 c3        1 MOL     -0.023557
     65 C22        -4.6210   -0.0870   -2.4680 c         1 MOL      0.492105
     66 N7         -4.9140   -1.1570   -3.0410 n         1 MOL     -0.555686
     67 O11        -3.6500   -0.0620   -1.6680 o         1 MOL     -0.658163
     68 H28        -4.5570    2.1080   -0.6230 hn        1 MOL      0.072877
     69 H29        -7.3140    2.0130   -1.5780 h1        1 MOL      0.130887
     70 H30        -4.9890    1.9620   -2.9010 hc        1 MOL      0.048530
     71 H31        -6.2400    0.9970   -3.5350 hc        1 MOL      0.048530
     72 H32        -5.6240   -1.2330   -3.7480 hn        1 MOL      0.324513
     73 H33        -4.2430   -1.9050   -2.9540 hn        1 MOL      0.324513
     74 N8         -6.2090   -0.0200    0.5720 n         1 MOL     -0.063171
     75 C23        -6.6390   -1.0940    1.4910 c3        1 MOL     -0.247337
     76 C24        -5.5290   -2.0850    1.9550 c         1 MOL      0.689114
     77 O12        -5.8200   -2.8510    2.8090 o         1 MOL     -0.549930
     78 H34        -5.4340    0.5620    0.8360 hn        1 MOL      0.130856
     79 H35        -7.3680   -1.6710    0.9320 h1        1 MOL      0.120507
     80 H36        -7.1350   -0.6750    2.3710 h1        1 MOL      0.120507
     81 N9         -4.3200   -2.0110    1.3680 n         1 MOL     -0.528905
     82 C25        -3.2110   -3.0260    1.6460 c3        1 MOL      0.151306
     83 C26        -1.7780   -2.3780    1.5430 c         1 MOL      0.625698
     84 O13        -1.6190   -1.4270    0.7420 o         1 MOL     -0.685388
     85 C27        -3.3440   -4.1690    0.6620 c3        1 MOL      0.059252
     86 C28        -4.6860   -4.9330    0.6590 ca        1 MOL     -0.129932
     87 C29        -5.6930   -4.5800   -0.1950 ca        1 MOL     -0.038600
     88 C30        -4.8370   -6.0100    1.4270 ca        1 MOL     -0.038600
     89 C31        -6.9180   -5.3080   -0.1940 ca        1 MOL     -0.313741
     90 C32        -5.9190   -6.8850    1.3430 ca        1 MOL     -0.313741
     91 C33        -6.9990   -6.5100    0.5060 ca        1 MOL      0.386639
     92 O14        -8.0750   -7.2190    0.3060 oh        1 MOL     -0.456714
     93 H37        -4.0740   -1.3070    0.6980 hn        1 MOL      0.309510
     94 H38        -3.4600   -3.3890    2.6370 h1        1 MOL      0.034464
     95 H39        -2.4950   -4.8300    0.8530 hc        1 MOL      0.011203
     96 H40        -3.1610   -3.8530   -0.3690 hc        1 MOL      0.011203
     97 H41        -5.5020   -3.7190   -0.8180 ha        1 MOL      0.081999
     98 H42        -3.9740   -6.2190    2.0500 ha        1 MOL      0.081999
     99 H43        -7.7880   -4.9410   -0.7090 ha        1 MOL      0.148610
    100 H44        -5.9070   -7.8570    1.8180 ha        1 MOL      0.148610
    101 H45        -8.0210   -8.0470    0.7880 ho        1 MOL      0.354401
    102 N10        -0.7980   -3.0240    2.2200 n         1 MOL     -0.597142
    103 C34         0.6040   -2.6740    1.9470 c3        1 MOL      0.128698
    104 C35         1.2460   -3.5830    0.9130 c         1 MOL      0.466575
    105 O15         1.1650   -4.8080    1.0400 o         1 MOL     -0.576489
    106 C36         1.4940   -2.5950    3.2210 c3        1 MOL      0.125855
    107 C37         0.8390   -1.7640    4.3710 c3        1 MOL      0.059993
    108 C38         2.8190   -1.9640    2.8080 c3        1 MOL     -0.198730
    109 C39         1.4110   -2.1220    5.7770 c3        1 MOL     -0.238844
    110 H46        -0.9020   -3.8780    2.7410 hn        1 MOL      0.326717
    111 H47         0.5360   -1.6920    1.4750 h1        1 MOL      0.171101
    112 H48         1.6490   -3.5970    3.6270 hc        1 MOL     -0.014421
    113 H49        -0.2490   -1.7810    4.2810 hc        1 MOL     -0.006514
    114 H50         1.1250   -0.7230    4.2260 hc        1 MOL     -0.006514
    115 H51         2.6700   -1.0040    2.3090 hc        1 MOL      0.039837
    116 H52         3.4990   -1.8680    3.6480 hc        1 MOL      0.039837
    117 H53         3.3920   -2.5630    2.1000 hc        1 MOL      0.039837
    118 H54         1.2300   -3.1890    5.9520 hc        1 MOL      0.063267
    119 H55         2.4270   -1.7460    5.8760 hc        1 MOL      0.063267
    120 H56         0.7710   -1.6960    6.5400 hc        1 MOL      0.063267
    121 N11         2.0220   -3.0360   -0.0340 n         1 MOL      0.014672
    122 C40         2.7580   -3.7180   -1.0710 c3        1 MOL     -0.088727
    123 C41         4.2310   -3.7080   -0.8280 c         1 MOL      0.510943
    124 O16         4.7950   -2.9240   -0.0540 o         1 MOL     -0.415425
    125 C42         2.4140   -3.1840   -2.4250 c3        1 MOL     -0.078987
    126 O17         2.7320   -1.8120   -2.4590 oh        1 MOL     -0.481151
    127 H57         2.1010   -2.0310    0.0430 hn        1 MOL     -0.114653
    128 H58         2.5700   -4.7930   -1.0880 h1        1 MOL      0.059269
    129 H59         1.3530   -3.3070   -2.6690 h1        1 MOL      0.090427
    130 H60         3.0350   -3.6780   -3.1720 h1        1 MOL      0.090427
    131 H61         2.2780   -1.3930   -1.7320 ho        1 MOL      0.367106
    132 N12         4.9650   -4.5960   -1.5450 n         1 MOL     -0.460251
    133 C43         6.4710   -4.6460   -1.4990 c3        1 MOL      0.136675
    134 C44         7.1870   -3.2940   -1.7280 c         1 MOL      0.467754
    135 O18         8.0680   -2.8980   -0.9210 o         1 MOL     -0.510816
    136 C45         6.9210   -5.7310   -2.4570 c3        1 MOL     -0.399180
    137 H62         4.5730   -5.3700   -2.0490 hn        1 MOL      0.310133
    138 H63         6.7650   -5.0240   -0.5150 h1        1 MOL      0.083506
    139 H64         6.3630   -5.6100   -3.3810 hc        1 MOL      0.119213
    140 H65         8.0040   -5.7600   -2.5760 hc        1 MOL      0.119213
    141 H66         6.6520   -6.6630   -1.9490 hc        1 MOL      0.119213
    142 N13         6.7610   -2.5260   -2.7740 n         1 MOL     -0.432131
    143 C46         7.1970   -1.2280   -3.1130 c3        1 MOL      0.179120
    144 C47         6.9490   -0.1840   -2.0760 c         1 MOL      0.305211
    145 O19         7.6750    0.8360   -2.0010 o         1 MOL     -0.520124
    146 C48         6.5160   -0.9290   -4.3890 c3        1 MOL     -0.094268
    147 H67         5.9520   -2.8550   -3.2950 hn        1 MOL      0.300029
    148 H68         8.2340   -1.2090   -3.4420 h1        1 MOL      0.069475
    149 H69         5.4420   -0.7230   -4.2980 hc        1 MOL      0.025884
    150 H70         6.9180   -0.0030   -4.8020 hc        1 MOL      0.025884
    151 H71         6.6540   -1.7420   -5.1080 hc        1 MOL      0.025884
    152 N14         5.9100   -0.3420   -1.2460 n         1 MOL     -0.029324
    153 C49         5.7070    0.5760   -0.1140 c3        1 MOL     -0.001681
    154 C50         6.6610    0.2120    1.0240 c         1 MOL      0.439376
    155 O20         7.1800    1.1710    1.6730 o         1 MOL     -0.585637
    156 C51         4.3030    0.3820    0.3730 c3        1 MOL      0.364986
    157 C52         3.3870    1.1680   -0.5700 c3        1 MOL     -0.222633
    158 C53         1.9290    0.7860   -0.5560 c         1 MOL      0.967103
    159 O21         1.0750    1.6650   -0.7330 o         1 MOL     -0.751780
    160 O22         1.4700   -0.3690   -0.3280 o         1 MOL     -0.751780
    161 H72         5.2960   -1.1380   -1.3160 hn        1 MOL      0.051881
    162 H73         5.8100    1.6340   -0.3180 h1        1 MOL      0.041808
    163 H74         4.2140    0.7690    1.3970 hc        1 MOL     -0.105654
    164 H75         4.0540   -0.6750    0.3480 hc        1 MOL     -0.105654
    165 H76         3.7820    0.9630   -1.5610 hc        1 MOL      0.016670
    166 H77         3.5310    2.1890   -0.2120 hc        1 MOL      0.016670
    167 N15         6.9210   -1.0640    1.2660 n         1 MOL     -0.081140
    168 C54         7.8760   -1.3980    2.2980 c3        1 MOL     -0.367690
    169 H78         7.4660   -1.1300    3.2720 h1        1 MOL      0.133712
    170 H79         8.0800   -2.4690    2.2720 h1        1 MOL      0.133712
    171 H80         8.8020   -0.8470    2.1290 h1        1 MOL      0.133712
    172 H81         6.5290   -1.7910    0.6840 hn        1 MOL      0.161666
    173 Ca1        -1.0900    0.2510   -1.2420 Ca        1 MOL      1.780793
    174 O23         0.8830    0.5370   -3.3110 oh        1 MOL     -0.820253
    175 H82         1.3150    1.3820   -3.2240 ho        1 MOL      0.394709
    176 H83         0.2590    0.6590   -4.0360 ho        1 MOL      0.394709
    177 O24        -1.7790   -0.2300   -4.1090 oh        1 MOL     -0.820253
    178 H84        -1.7250    0.6730   -4.4240 ho        1 MOL      0.394709
    179 H85        -2.2730   -0.6910   -4.7850 ho        1 MOL      0.394709
    180 O25        -1.1620   -2.2890   -2.4170 oh        1 MOL     -0.820253
    181 H86        -1.1170   -3.2360   -2.4510 ho        1 MOL      0.394709
    182 H87        -1.3430   -2.0210   -3.3230 ho        1 MOL      0.394709
@<TRIPOS>BOND
     1    1    2 1   
     2    1    4 1   
     3    1    5 1   
     4    1    6 1   
     5    2    3 2   
     6    2    7 1   
     7    7    8 1   
     8    7   15 1   
     9    8    9 1   
    10    8   11 1   
    11    8   16 1   
    12    9   10 2   
    13    9   19 1   
    14   11   12 1   
    15   11   17 1   
    16   11   18 1   
    17   12   13 1   
    18   12   14 1   
    19   19   20 1   
    20   19   28 1   
    21   20   21 1   
    22   20   23 1   
    23   20   29 1   
    24   21   22 2   
    25   21   41 1   
    26   23   24 1   
    27   23   30 1   
    28   23   31 1   
    29   24   25 1   
    30   24   32 1   
    31   24   33 1   
    32   25   26 1   
    33   25   34 1   
    34   25   35 1   
    35   26   27 1   
    36   26   36 1   
    37   26   37 1   
    38   27   38 1   
    39   27   39 1   
    40   27   40 1   
    41   41   42 1   
    42   41   49 1   
    43   42   43 1   
    44   42   45 1   
    45   42   50 1   
    46   43   44 2   
    47   43   53 1   
    48   45   46 1   
    49   45   51 1   
    50   45   52 1   
    51   46   47 1   
    52   46   48 1   
    53   53   54 1   
    54   53   57 1   
    55   54   55 1   
    56   54   58 1   
    57   54   59 1   
    58   55   56 2   
    59   55   60 1   
    60   60   61 1   
    61   60   68 1   
    62   61   62 1   
    63   61   64 1   
    64   61   69 1   
    65   62   63 2   
    66   62   74 1   
    67   64   65 1   
    68   64   70 1   
    69   64   71 1   
    70   65   66 1   
    71   65   67 2   
    72   66   72 1   
    73   66   73 1   
    74   74   75 1   
    75   74   78 1   
    76   75   76 1   
    77   75   79 1   
    78   75   80 1   
    79   76   77 2   
    80   76   81 1   
    81   81   82 1   
    82   81   93 1   
    83   82   83 1   
    84   82   85 1   
    85   82   94 1   
    86   83   84 2   
    87   83  102 1   
    88   85   86 1   
    89   85   95 1   
    90   85   96 1   
    91   86   87 ar  
    92   86   88 ar  
    93   87   89 ar  
    94   87   97 1   
    95   88   90 ar  
    96   88   98 1   
    97   89   91 ar  
    98   89   99 1   
    99   90   91 ar  
   100   90  100 1   
   101   91   92 1   
   102   92  101 1   
   103  102  103 1   
   104  102  110 1   
   105  103  104 1   
   106  103  106 1   
   107  103  111 1   
   108  104  105 2   
   109  104  121 1   
   110  106  107 1   
   111  106  108 1   
   112  106  112 1   
   113  107  109 1   
   114  107  113 1   
   115  107  114 1   
   116  108  115 1   
   117  108  116 1   
   118  108  117 1   
   119  109  118 1   
   120  109  119 1   
   121  109  120 1   
   122  121  122 1   
   123  121  127 1   
   124  122  123 1   
   125  122  125 1   
   126  122  128 1   
   127  123  124 2   
   128  123  132 1   
   129  125  126 1   
   130  125  129 1   
   131  125  130 1   
   132  126  131 1   
   133  132  133 1   
   134  132  137 1   
   135  133  134 1   
   136  133  136 1   
   137  133  138 1   
   138  134  135 2   
   139  134  142 1   
   140  136  139 1   
   141  136  140 1   
   142  136  141 1   
   143  142  143 1   
   144  142  147 1   
   145  143  144 1   
   146  143  146 1   
   147  143  148 1   
   148  144  145 2   
   149  144  152 1   
   150  146  149 1   
   151  146  150 1   
   152  146  151 1   
   153  152  153 1   
   154  152  161 1   
   155  153  154 1   
   156  153  156 1   
   157  153  162 1   
   158  154  155 2   
   159  154  167 1   
   160  156  157 1   
   161  156  163 1   
   162  156  164 1   
   163  157  158 1   
   164  157  165 1   
   165  157  166 1   
   166  158  159 1   
   167  158  160 1   
   168  167  168 1   
   169  167  172 1   
   170  168  169 1   
   171  168  170 1   
   172  168  171 1   
   173  174  175 1   
   174  174  176 1   
   175  177  178 1   
   176  177  179 1   
   177  180  181 1   
   178  180  182 1   
@<TRIPOS>SUBSTRUCTURE
     1 MOL         1 TEMP              0 ****  ****    0 ROOT
