@<TRIPOS>MOLECULE
MOL
  189   185     1     0     0
SMALL
resp


@<TRIPOS>ATOM
      1 C1          0.3160   -4.8090    5.6000 c3        1 MOL     -0.401251
      2 C2          1.1270   -4.2820    4.4340 c         1 MOL      0.754521
      3 O1          1.4650   -3.1340    4.4540 o         1 MOL     -0.607382
      4 H1          0.7630   -4.4700    6.5350 hc        1 MOL      0.101052
      5 H2         -0.7060   -4.4360    5.5300 hc        1 MOL      0.101052
      6 H3          0.3080   -5.8980    5.5750 hc        1 MOL      0.101052
      7 N1          1.3790   -5.0760    3.3530 n         1 MOL     -0.680510
      8 C3          1.9750   -4.5970    2.0820 c3        1 MOL      0.243134
      9 C4          1.5090   -5.4770    0.9280 c         1 MOL      0.502836
     10 O2          1.4690   -6.7170    1.0570 o         1 MOL     -0.591827
     11 C5          3.5620   -4.5850    2.1340 c3        1 MOL     -0.227439
     12 C6          4.1710   -3.6940    1.0110 c         1 MOL      0.674880
     13 O3          5.4060   -3.8110    0.7560 o         1 MOL     -0.673370
     14 O4          3.4050   -2.8620    0.4600 o         1 MOL     -0.673370
     15 H4          1.2120   -6.0530    3.5010 hn        1 MOL      0.325556
     16 H5          1.6470   -3.5780    1.8650 h1        1 MOL      0.049742
     17 H6          3.8840   -5.6150    2.0200 hc        1 MOL      0.052439
     18 H7          3.9300   -4.2290    3.0980 hc        1 MOL      0.052439
     19 N2          1.0990   -4.9050   -0.2200 n         1 MOL     -0.183580
     20 C7          0.6930   -5.4780   -1.4650 c3        1 MOL     -0.064741
     21 C8          1.6660   -5.1220   -2.5480 c         1 MOL      0.565202
     22 O5          1.8420   -5.8670   -3.4840 o         1 MOL     -0.605430
     23 C9         -0.7450   -5.0350   -1.8530 c3        1 MOL      0.329242
     24 C10        -1.7790   -5.2750   -0.7200 c3        1 MOL     -0.231626
     25 C11        -1.2770   -5.7170   -3.1970 c3        1 MOL     -0.307105
     26 C12        -3.2150   -4.8820   -1.0120 c3        1 MOL      0.032544
     27 H8          1.0940   -3.9010   -0.2040 hn        1 MOL     -0.028226
     28 H9          0.6040   -6.5620   -1.3550 h1        1 MOL      0.061595
     29 H10        -0.6830   -3.9710   -2.0940 hc        1 MOL     -0.001142
     30 H11        -1.5010   -4.7600    0.2070 hc        1 MOL      0.044229
     31 H12        -1.7930   -6.3500   -0.5640 hc        1 MOL      0.044229
     32 H13        -1.4490   -6.7900   -3.0870 hc        1 MOL      0.064494
     33 H14        -2.1640   -5.1590   -3.4990 hc        1 MOL      0.064494
     34 H15        -0.6040   -5.5070   -4.0290 hc        1 MOL      0.064494
     35 H16        -3.3780   -3.8340   -1.2870 hc        1 MOL      0.001638
     36 H17        -3.6400   -5.4660   -1.8330 hc        1 MOL      0.001638
     37 H18        -3.8710   -5.0430   -0.1530 hc        1 MOL      0.001638
     38 N3          2.3040   -3.9940   -2.4750 n         1 MOL     -0.488848
     39 C13         2.9540   -3.3470   -3.6660 c3        1 MOL      0.223472
     40 C14         4.4410   -2.9450   -3.5090 c         1 MOL      0.378338
     41 O6          5.1240   -2.8230   -4.5260 o         1 MOL     -0.586110
     42 C15         1.9750   -2.2060   -4.2060 c3        1 MOL     -0.286072
     43 C16         1.7760   -1.0060   -3.2550 c         1 MOL      0.745959
     44 O7          2.2960   -1.1570   -2.1420 o         1 MOL     -0.700427
     45 O8          0.8960   -0.1380   -3.4600 o         1 MOL     -0.700427
     46 H19         2.1280   -3.4020   -1.6840 hn        1 MOL      0.406140
     47 H20         3.0070   -4.1160   -4.4380 h1        1 MOL      0.051501
     48 H21         1.0560   -2.7310   -4.4640 hc        1 MOL      0.063650
     49 H22         2.4760   -1.9320   -5.1320 hc        1 MOL      0.063650
     50 N4          4.9760   -2.8950   -2.3230 n         1 MOL     -0.051007
     51 C17         6.4070   -2.6400   -1.9940 c3        1 MOL     -0.317847
     52 C18         6.8140   -1.1670   -1.9720 c         1 MOL      0.510306
     53 O9          7.9880   -0.9130   -1.7540 o         1 MOL     -0.598530
     54 H23         4.3280   -3.0770   -1.5700 hn        1 MOL      0.030115
     55 H24         6.9840   -3.1890   -2.7320 h1        1 MOL      0.156284
     56 H25         6.6270   -3.0540   -1.0100 h1        1 MOL      0.156284
     57 N5          5.9300   -0.1720   -2.2050 n         1 MOL     -0.193662
     58 C19         6.3300    1.2550   -2.4770 c3        1 MOL     -0.004275
     59 C20         6.9300    1.9970   -1.2910 c         1 MOL      0.433306
     60 O10         7.5520    3.0420   -1.5600 o         1 MOL     -0.567338
     61 C21         5.1620    2.0400   -3.0580 c3        1 MOL     -0.311555
     62 C22         3.9100    2.0880   -2.1730 c         1 MOL      0.856926
     63 O11         3.8730    1.5130   -1.0440 o         1 MOL     -0.716143
     64 O12         2.9540    2.7200   -2.7060 o         1 MOL     -0.716143
     65 H26         4.9440   -0.3380   -2.3200 hn        1 MOL      0.148768
     66 H27         7.0870    1.1220   -3.2510 h1        1 MOL      0.094972
     67 H28         4.7780    1.5900   -3.9780 hc        1 MOL      0.076668
     68 H29         5.4430    3.0760   -3.2630 hc        1 MOL      0.076668
     69 N6          6.8720    1.4460   -0.0970 n         1 MOL     -0.167301
     70 C23         7.4190    2.1880    1.0410 c3        1 MOL     -0.196455
     71 C24         6.3510    3.1560    1.6870 c         1 MOL      0.546124
     72 O13         6.7100    3.9880    2.4830 o         1 MOL     -0.585946
     73 H30         6.4400    0.5440    0.0400 hn        1 MOL      0.200293
     74 H31         8.3340    2.7140    0.7800 h1        1 MOL      0.097050
     75 H32         7.6950    1.4660    1.8080 h1        1 MOL      0.097050
     76 N7          5.0980    3.0590    1.2120 n         1 MOL     -0.336867
     77 C25         4.0250    3.9260    1.7080 c3        1 MOL      0.013394
     78 C26         2.7300    3.1290    1.7630 c         1 MOL      0.537242
     79 O14         2.6920    1.9780    1.3240 o         1 MOL     -0.552827
     80 C27         3.8160    5.1720    0.7570 c3        1 MOL     -0.015195
     81 C28         5.1110    6.0020    0.4670 c3        1 MOL     -0.223169
     82 C29         4.7800    7.2980   -0.2810 c         1 MOL      0.654696
     83 N8          5.4320    7.5680   -1.4040 n         1 MOL     -0.809781
     84 O15         4.0440    8.1250    0.2390 o         1 MOL     -0.571652
     85 H33         4.8730    2.2360    0.6780 hn        1 MOL      0.233264
     86 H34         4.2200    4.2670    2.7240 h1        1 MOL      0.065238
     87 H35         3.1700    5.8820    1.2670 hc        1 MOL      0.033211
     88 H36         3.4220    4.8340   -0.2000 hc        1 MOL      0.033211
     89 H37         5.8000    5.3240   -0.0220 hc        1 MOL      0.088442
     90 H38         5.4920    6.2090    1.4770 hc        1 MOL      0.088442
     91 H39         5.9410    6.7960   -1.8040 hn        1 MOL      0.368646
     92 H40         5.1480    8.3660   -1.9500 hn        1 MOL      0.368646
     93 N9          1.6750    3.6220    2.3270 n         1 MOL     -0.465318
     94 C30         0.4820    2.8060    2.6530 c3        1 MOL      0.070453
     95 C31        -0.6960    3.2080    1.7760 c         1 MOL      0.420107
     96 O16        -1.0340    4.4000    1.6480 o         1 MOL     -0.593193
     97 C32         0.2230    2.8530    4.1250 c3        1 MOL      0.098411
     98 C33        -1.0990    2.1860    4.5530 c3        1 MOL     -0.173973
     99 C34         1.3810    2.3430    5.0370 c3        1 MOL     -0.173973
    100 H41         1.6860    4.5240    2.7730 hn        1 MOL      0.288206
    101 H42         0.6580    1.7360    2.5950 h1        1 MOL      0.114384
    102 H43         0.1270    3.8980    4.4330 hc        1 MOL     -0.012663
    103 H44        -1.4400    2.4460    5.5620 hc        1 MOL      0.038453
    104 H45        -1.9210    2.6370    4.0000 hc        1 MOL      0.038453
    105 H46        -1.0020    1.1030    4.5650 hc        1 MOL      0.038453
    106 H47         1.1740    2.5060    6.0910 hc        1 MOL      0.038453
    107 H48         1.5430    1.2850    4.8280 hc        1 MOL      0.038453
    108 H49         2.3420    2.8320    4.8770 hc        1 MOL      0.038453
    109 N10        -1.4710    2.2650    1.2420 n         1 MOL     -0.114804
    110 C35        -2.5800    2.4800    0.2670 c3        1 MOL      0.361044
    111 C36        -4.0050    2.3180    0.9080 c         1 MOL      0.013276
    112 O17        -4.1680    1.6750    1.8900 o         1 MOL     -0.239167
    113 C37        -2.3540    1.7420   -1.0290 c3        1 MOL     -0.164014
    114 C38        -3.4110    1.9530   -2.0300 c         1 MOL      0.801929
    115 N11        -3.4580    3.1340   -2.5820 n         1 MOL     -0.805754
    116 O18        -4.1240    1.0450   -2.3460 o         1 MOL     -0.603235
    117 H50        -1.2380    1.3100    1.4830 hn        1 MOL      0.084244
    118 H51        -2.5280    3.5290   -0.0300 h1        1 MOL     -0.037546
    119 H52        -2.4110    0.6830   -0.7670 hc        1 MOL      0.016271
    120 H53        -1.3520    2.0420   -1.3400 hc        1 MOL      0.016271
    121 H54        -2.8080    3.8480   -2.2670 hn        1 MOL      0.366281
    122 H55        -4.2820    3.3650   -3.1080 hn        1 MOL      0.366281
    123 N12        -5.0270    2.7730    0.1910 n         1 MOL     -0.095389
    124 C39        -6.3920    2.5980    0.8250 c3        1 MOL      0.172235
    125 C40        -6.8220    1.0780    0.8050 c         1 MOL      0.228025
    126 O19        -7.7100    0.7240    1.6010 o         1 MOL     -0.547092
    127 C41        -7.4090    3.5210    0.0660 c3        1 MOL     -0.415759
    128 C42        -7.2010    3.4640   -1.4810 ca        1 MOL      0.218590
    129 C43        -6.5270    4.6010   -2.0430 ca        1 MOL     -0.255350
    130 C44        -7.7140    2.4200   -2.3360 ca        1 MOL     -0.255350
    131 C45        -6.3300    4.6350   -3.4280 ca        1 MOL     -0.223445
    132 C46        -7.6150    2.6390   -3.7380 ca        1 MOL     -0.223445
    133 C47        -6.8730    3.6930   -4.3180 ca        1 MOL      0.318828
    134 O20        -6.7530    3.7850   -5.6680 oh        1 MOL     -0.541780
    135 H56        -4.8720    3.1670   -0.7230 hn        1 MOL      0.000598
    136 H57        -6.4580    2.9390    1.8590 h1        1 MOL      0.080648
    137 H58        -7.2390    4.5360    0.4140 hc        1 MOL      0.126628
    138 H59        -8.4160    3.1600    0.2410 hc        1 MOL      0.126628
    139 H60        -6.0590    5.3840   -1.4670 ha        1 MOL      0.173685
    140 H61        -8.2810    1.5850   -1.9730 ha        1 MOL      0.173685
    141 H62        -5.8310    5.4990   -3.8510 ha        1 MOL      0.123879
    142 H63        -8.1000    1.9310   -4.3990 ha        1 MOL      0.123879
    143 H64        -7.3900    3.1490   -6.0140 ho        1 MOL      0.412654
    144 N13        -6.1910    0.2390    0.0260 n         1 MOL      0.297458
    145 C48        -6.3560   -1.2530    0.1970 c3        1 MOL     -0.541159
    146 C49        -5.5350   -1.8570    1.2770 c         1 MOL      0.491103
    147 O21        -5.7900   -2.9920    1.7440 o         1 MOL     -0.546344
    148 C50        -6.1140   -1.8510   -1.2520 c3        1 MOL      0.255035
    149 C51        -7.0360   -1.5150   -2.3590 c3        1 MOL     -0.281014
    150 C52        -8.4960   -1.9670   -2.1900 c         1 MOL      0.744041
    151 O22        -9.3190   -1.3370   -2.8460 o         1 MOL     -0.732100
    152 O23        -8.7970   -2.7730   -1.3390 o         1 MOL     -0.732100
    153 H65        -5.5920    0.5770   -0.7080 hn        1 MOL      0.209805
    154 H66        -7.3880   -1.5540    0.3940 h1        1 MOL      0.246961
    155 H67        -6.1560   -2.9450   -1.1890 hc        1 MOL     -0.026026
    156 H68        -5.0910   -1.5780   -1.5060 hc        1 MOL     -0.026026
    157 H69        -6.6130   -2.0840   -3.1940 hc        1 MOL      0.022701
    158 H70        -7.0760   -0.4710   -2.6500 hc        1 MOL      0.022701
    159 N14        -4.5110   -1.1910    1.7500 n         1 MOL     -0.076931
    160 C53        -3.5970   -1.5130    2.8510 c3        1 MOL     -0.089496
    161 C54        -4.1140   -1.0440    4.2110 c         1 MOL      0.512911
    162 O24        -4.0450   -1.8190    5.1650 o         1 MOL     -0.568001
    163 C55        -2.2000   -1.0690    2.5300 c3        1 MOL      0.073676
    164 C56        -1.6130   -1.8420    1.4030 c3        1 MOL     -0.301183
    165 C57        -0.2450   -1.2670    0.9980 c         1 MOL      0.767311
    166 O25         0.4960   -1.8690    0.2120 o         1 MOL     -0.701326
    167 O26         0.1090   -0.1390    1.4760 o         1 MOL     -0.701326
    168 H71        -4.3920   -0.3090    1.2730 hn        1 MOL     -0.032967
    169 H72        -3.6510   -2.5990    2.9490 h1        1 MOL      0.072512
    170 H73        -1.6970   -1.0930    3.5010 hc        1 MOL      0.040088
    171 H74        -2.2400   -0.0320    2.1890 hc        1 MOL      0.040088
    172 H75        -2.3510   -1.7500    0.6080 hc        1 MOL      0.100817
    173 H76        -1.6830   -2.8880    1.7120 hc        1 MOL      0.100817
    174 N15        -4.6120    0.1790    4.2770 n         1 MOL     -0.140223
    175 C58        -4.8330    0.8820    5.5180 c3        1 MOL     -0.294102
    176 H77        -3.8830    1.0090    6.0370 h1        1 MOL      0.105178
    177 H78        -5.2680    1.8600    5.3100 h1        1 MOL      0.105178
    178 H79        -5.5150    0.3070    6.1450 h1        1 MOL      0.105178
    179 H80        -4.5190    0.6960    3.4030 hn        1 MOL      0.077515
    180 Ca1         2.5150   -0.2990    0.2230 Ca        1 MOL      1.698736
    181 O27         2.7430   -1.0700    2.8610 oh        1 MOL     -0.838640
    182 H81         3.2620   -0.9960    3.6630 ho        1 MOL      0.412055
    183 H82         2.2220   -1.8650    2.9810 ho        1 MOL      0.412055
    184 O28         5.2500   -0.7300    0.9620 oh        1 MOL     -0.838640
    185 H83         5.8280   -0.7520    1.7290 ho        1 MOL      0.412055
    186 H84         5.3370   -1.6150    0.5810 ho        1 MOL      0.412055
    187 O29         1.0610    1.5570   -1.3110 oh        1 MOL     -0.838640
    188 H85         1.6360    2.1890   -1.7520 ho        1 MOL      0.412055
    189 H86         0.8970    0.8900   -1.9810 ho        1 MOL      0.412055
@<TRIPOS>BOND
     1    1    2 1   
     2    1    4 1   
     3    1    5 1   
     4    1    6 1   
     5    2    3 2   
     6    2    7 1   
     7    7    8 1   
     8    7   15 1   
     9    8    9 1   
    10    8   11 1   
    11    8   16 1   
    12    9   10 2   
    13    9   19 1   
    14   11   12 1   
    15   11   17 1   
    16   11   18 1   
    17   12   13 1   
    18   12   14 1   
    19   19   20 1   
    20   19   27 1   
    21   20   21 1   
    22   20   23 1   
    23   20   28 1   
    24   21   22 2   
    25   21   38 1   
    26   23   24 1   
    27   23   25 1   
    28   23   29 1   
    29   24   26 1   
    30   24   30 1   
    31   24   31 1   
    32   25   32 1   
    33   25   33 1   
    34   25   34 1   
    35   26   35 1   
    36   26   36 1   
    37   26   37 1   
    38   38   39 1   
    39   38   46 1   
    40   39   40 1   
    41   39   42 1   
    42   39   47 1   
    43   40   41 2   
    44   40   50 1   
    45   42   43 1   
    46   42   48 1   
    47   42   49 1   
    48   43   44 1   
    49   43   45 1   
    50   50   51 1   
    51   50   54 1   
    52   51   52 1   
    53   51   55 1   
    54   51   56 1   
    55   52   53 2   
    56   52   57 1   
    57   57   58 1   
    58   57   65 1   
    59   58   59 1   
    60   58   61 1   
    61   58   66 1   
    62   59   60 2   
    63   59   69 1   
    64   61   62 1   
    65   61   67 1   
    66   61   68 1   
    67   62   63 1   
    68   62   64 1   
    69   69   70 1   
    70   69   73 1   
    71   70   71 1   
    72   70   74 1   
    73   70   75 1   
    74   71   72 2   
    75   71   76 1   
    76   76   77 1   
    77   76   85 1   
    78   77   78 1   
    79   77   80 1   
    80   77   86 1   
    81   78   79 2   
    82   78   93 1   
    83   80   81 1   
    84   80   87 1   
    85   80   88 1   
    86   81   82 1   
    87   81   89 1   
    88   81   90 1   
    89   82   83 1   
    90   82   84 2   
    91   83   91 1   
    92   83   92 1   
    93   93   94 1   
    94   93  100 1   
    95   94   95 1   
    96   94   97 1   
    97   94  101 1   
    98   95   96 2   
    99   95  109 1   
   100   97   98 1   
   101   97   99 1   
   102   97  102 1   
   103   98  103 1   
   104   98  104 1   
   105   98  105 1   
   106   99  106 1   
   107   99  107 1   
   108   99  108 1   
   109  109  110 1   
   110  109  117 1   
   111  110  111 1   
   112  110  113 1   
   113  110  118 1   
   114  111  112 2   
   115  111  123 1   
   116  113  114 1   
   117  113  119 1   
   118  113  120 1   
   119  114  115 1   
   120  114  116 2   
   121  115  121 1   
   122  115  122 1   
   123  123  124 1   
   124  123  135 1   
   125  124  125 1   
   126  124  127 1   
   127  124  136 1   
   128  125  126 2   
   129  125  144 1   
   130  127  128 1   
   131  127  137 1   
   132  127  138 1   
   133  128  129 ar  
   134  128  130 ar  
   135  129  131 ar  
   136  129  139 1   
   137  130  132 ar  
   138  130  140 1   
   139  131  133 ar  
   140  131  141 1   
   141  132  133 ar  
   142  132  142 1   
   143  133  134 1   
   144  134  143 1   
   145  144  145 1   
   146  144  153 1   
   147  145  146 1   
   148  145  148 1   
   149  145  154 1   
   150  146  147 2   
   151  146  159 1   
   152  148  149 1   
   153  148  155 1   
   154  148  156 1   
   155  149  150 1   
   156  149  157 1   
   157  149  158 1   
   158  150  151 1   
   159  150  152 1   
   160  159  160 1   
   161  159  168 1   
   162  160  161 1   
   163  160  163 1   
   164  160  169 1   
   165  161  162 2   
   166  161  174 1   
   167  163  164 1   
   168  163  170 1   
   169  163  171 1   
   170  164  165 1   
   171  164  172 1   
   172  164  173 1   
   173  165  166 1   
   174  165  167 1   
   175  174  175 1   
   176  174  179 1   
   177  175  176 1   
   178  175  177 1   
   179  175  178 1   
   180  181  182 1   
   181  181  183 1   
   182  184  185 1   
   183  184  186 1   
   184  187  188 1   
   185  187  189 1   
@<TRIPOS>SUBSTRUCTURE
     1 MOL         1 TEMP              0 ****  ****    0 ROOT
