@<TRIPOS>MOLECULE
MOL
  179   176     1     0     0
SMALL
resp


@<TRIPOS>ATOM
      1 C1         -0.0830    3.9400    6.2600 c3        1 MOL     -0.287655
      2 C2         -0.3180    3.5370    4.7940 c         1 MOL      0.617554
      3 O1          0.6920    3.4790    4.0800 o         1 MOL     -0.554824
      4 H1         -0.9580    4.4700    6.6350 hc        1 MOL      0.081759
      5 H2          0.0850    3.0460    6.8600 hc        1 MOL      0.081759
      6 H3          0.7900    4.5910    6.3230 hc        1 MOL      0.081759
      7 N1         -1.5280    3.1610    4.2910 n         1 MOL     -0.440267
      8 C3         -1.8390    2.5180    3.0420 c3        1 MOL     -0.092343
      9 C4         -2.1360    3.5480    1.9900 c         1 MOL      0.635747
     10 O2         -3.0690    4.3480    1.9640 o         1 MOL     -0.511593
     11 C5         -2.9410    1.4920    3.3380 c3        1 MOL     -0.417078
     12 C6         -3.4090    0.6120    2.1700 c         1 MOL      0.672338
     13 O3         -4.3280   -0.2690    2.3310 o         1 MOL     -0.654382
     14 O4         -2.9600    0.7570    0.9810 o         1 MOL     -0.654382
     15 H4         -2.3280    3.3300    4.8850 hn        1 MOL      0.297044
     16 H5         -0.9660    1.9180    2.7890 h1        1 MOL      0.015200
     17 H6         -3.8620    1.9650    3.6860 hc        1 MOL      0.150069
     18 H7         -2.6350    0.8770    4.1850 hc        1 MOL      0.150069
     19 N2         -1.1810    3.6340    1.0800 n         1 MOL     -0.447156
     20 C7         -0.9570    4.9100    0.3170 c3        1 MOL      0.062803
     21 C8         -1.9180    5.1980   -0.8080 c         1 MOL      0.453599
     22 O5         -2.2370    6.3530   -1.0290 o         1 MOL     -0.583017
     23 C9          0.6020    5.0370   -0.0210 c3        1 MOL     -0.108416
     24 C10         1.1730    6.3180   -0.6870 c3        1 MOL     -0.081649
     25 C11         2.6130    6.3310   -1.2830 c3        1 MOL     -0.150637
     26 C12         3.0050    7.7010   -1.7980 c3        1 MOL     -0.046455
     27 N3          2.2770    8.0150   -3.0160 n4        1 MOL     -0.359008
     28 H8         -0.3900    3.0310    1.2760 hn        1 MOL      0.291653
     29 H9         -1.0200    5.7880    0.9570 h1        1 MOL      0.075911
     30 H10         0.7590    4.2320   -0.7460 hc        1 MOL      0.115305
     31 H11         1.1820    4.8130    0.8690 hc        1 MOL      0.115305
     32 H12         1.0960    7.0980    0.0720 hc        1 MOL      0.039253
     33 H13         0.5170    6.5130   -1.5290 hc        1 MOL      0.039253
     34 H14         2.8500    5.6540   -2.0890 hc        1 MOL      0.102485
     35 H15         3.2810    6.0660   -0.4620 hc        1 MOL      0.102485
     36 H16         4.0910    7.7030   -1.9360 hx        1 MOL      0.125687
     37 H17         2.7030    8.4240   -1.0500 hx        1 MOL      0.125687
     38 H18         2.5770    8.9100   -3.3880 hn        1 MOL      0.330405
     39 H19         2.3000    7.2630   -3.6920 hn        1 MOL      0.330405
     40 H20         1.2750    8.0220   -2.9280 hn        1 MOL      0.330405
     41 N4         -2.5320    4.1810   -1.3470 n         1 MOL     -0.136836
     42 C13        -3.6940    4.1500   -2.0830 c3        1 MOL      0.021761
     43 C14        -4.9830    3.7620   -1.3080 c         1 MOL      0.384038
     44 O6         -6.1010    3.7000   -1.8170 o         1 MOL     -0.529658
     45 C15        -3.5440    3.3780   -3.4220 c3        1 MOL     -0.338114
     46 C16        -2.9460    2.0040   -3.2790 c         1 MOL      0.847894
     47 O7         -2.5240    1.4640   -4.3140 o         1 MOL     -0.721207
     48 O8         -2.7520    1.5170   -2.1340 o         1 MOL     -0.721207
     49 H21        -2.2470    3.2670   -1.0530 hn        1 MOL      0.063389
     50 H22        -3.9440    5.1710   -2.3670 h1        1 MOL      0.085146
     51 H23        -2.8660    3.9480   -4.0550 hc        1 MOL      0.095232
     52 H24        -4.4380    3.3850   -4.0540 hc        1 MOL      0.095232
     53 N5         -4.8390    3.3320   -0.0600 n         1 MOL      0.016278
     54 C17        -5.8580    2.6190    0.6820 c3        1 MOL     -0.241459
     55 C18        -6.5370    1.3990   -0.0430 c         1 MOL      0.571149
     56 O9         -7.7660    1.3690   -0.0670 o         1 MOL     -0.553121
     57 H25        -3.9650    3.4360    0.4300 hn        1 MOL      0.054493
     58 H26        -6.6350    3.3750    0.7980 h1        1 MOL      0.097620
     59 H27        -5.4670    2.1910    1.6090 h1        1 MOL      0.097620
     60 N6         -5.6890    0.4910   -0.5390 n         1 MOL     -0.115327
     61 C19        -6.2860   -0.6000   -1.3370 c3        1 MOL     -0.077087
     62 C20        -6.4940   -1.8760   -0.5670 c         1 MOL      0.465669
     63 O10        -7.3850   -2.6560   -0.8240 o         1 MOL     -0.565439
     64 C21        -5.2950   -0.8280   -2.5140 c3        1 MOL     -0.055036
     65 C22        -4.1300   -1.6740   -2.2320 c         1 MOL      0.528072
     66 N7         -3.8470   -2.5780   -3.1880 n         1 MOL     -0.697611
     67 O11        -3.4570   -1.5050   -1.2370 o         1 MOL     -0.611773
     68 H28        -4.7070    0.7260   -0.4960 hn        1 MOL      0.087694
     69 H29        -7.2240   -0.2810   -1.8020 h1        1 MOL      0.108747
     70 H30        -5.0380    0.1280   -2.9710 hc        1 MOL      0.050670
     71 H31        -5.8470   -1.3860   -3.2720 hc        1 MOL      0.050670
     72 H32        -4.2590   -2.4760   -4.1130 hn        1 MOL      0.336532
     73 H33        -3.1210   -3.2460   -2.9960 hn        1 MOL      0.336532
     74 N8         -5.7250   -2.1130    0.4870 n         1 MOL     -0.113117
     75 C23        -6.0370   -3.1690    1.5000 c3        1 MOL     -0.090094
     76 C24        -4.8310   -3.9740    2.0690 c         1 MOL      0.424423
     77 O12        -4.9920   -4.8720    2.9330 o         1 MOL     -0.559352
     78 H34        -5.0060   -1.4520    0.7330 hn        1 MOL      0.088969
     79 H35        -6.5980   -4.0130    1.0890 h1        1 MOL      0.096186
     80 H36        -6.7140   -2.7260    2.2250 h1        1 MOL      0.096186
     81 N9         -3.6790   -3.6140    1.5910 n         1 MOL     -0.119000
     82 C25        -2.3510   -4.1980    1.9860 c3        1 MOL     -0.055165
     83 C26        -1.1620   -3.2900    1.6420 c         1 MOL      0.758348
     84 O13        -1.3920   -2.2960    0.9550 o         1 MOL     -0.599307
     85 C27        -2.0850   -5.5590    1.2590 c3        1 MOL     -0.170223
     86 C28        -2.0960   -5.5320   -0.2550 ca        1 MOL      0.045562
     87 C29        -0.9120   -5.2950   -0.9630 ca        1 MOL     -0.130027
     88 C30        -3.2950   -5.6420   -1.0020 ca        1 MOL     -0.130027
     89 C31        -0.8980   -5.3640   -2.3790 ca        1 MOL     -0.316168
     90 C32        -3.3360   -5.7070   -2.4360 ca        1 MOL     -0.316168
     91 C33        -2.1090   -5.6370   -3.0980 ca        1 MOL      0.407421
     92 O14        -2.0960   -5.5640   -4.4350 oh        1 MOL     -0.563729
     93 H37        -3.6670   -2.7730    1.0280 hn        1 MOL      0.170044
     94 H38        -2.2390   -4.4200    3.0520 h1        1 MOL      0.079957
     95 H39        -2.7870   -6.3250    1.5950 hc        1 MOL      0.081772
     96 H40        -1.1220   -5.9570    1.5970 hc        1 MOL      0.081772
     97 H41        -0.0400   -4.9920   -0.3940 ha        1 MOL      0.148052
     98 H42        -4.2190   -5.6970   -0.4370 ha        1 MOL      0.148052
     99 H43         0.0290   -5.2100   -2.9150 ha        1 MOL      0.149889
    100 H44        -4.2610   -5.7210   -2.9780 ha        1 MOL      0.149889
    101 H45        -2.9870   -5.5400   -4.7910 ho        1 MOL      0.411484
    102 N10         0.0470   -3.6640    2.1810 n         1 MOL     -0.701200
    103 C34         1.2440   -2.8430    2.1540 c3        1 MOL     -0.014649
    104 C35         2.2880   -3.6020    1.3450 c         1 MOL      0.637699
    105 O15         2.3880   -4.8150    1.3900 o         1 MOL     -0.541785
    106 C36         1.6340   -2.5480    3.6500 c3        1 MOL      0.184951
    107 C37         0.5600   -1.7050    4.4640 c3        1 MOL     -0.158467
    108 C38         2.9420   -1.6800    3.7410 c3        1 MOL     -0.556482
    109 C39         0.0270   -0.4140    3.8480 c3        1 MOL     -0.050107
    110 H46         0.0830   -4.4890    2.7640 hn        1 MOL      0.356433
    111 H47         0.9620   -1.8960    1.7150 h1        1 MOL      0.115969
    112 H48         1.8640   -3.4460    4.2220 hc        1 MOL      0.038784
    113 H49         1.0390   -1.5570    5.4310 hc        1 MOL      0.036647
    114 H50        -0.2880   -2.3500    4.6760 hc        1 MOL      0.036647
    115 H51         3.7980   -2.3160    3.5040 hc        1 MOL      0.148877
    116 H52         2.8670   -0.7200    3.2250 hc        1 MOL      0.148877
    117 H53         3.0710   -1.3850    4.7820 hc        1 MOL      0.148877
    118 H54         0.8470    0.1490    3.3980 hc        1 MOL      0.068087
    119 H55        -0.6300   -0.5810    2.9930 hc        1 MOL      0.068087
    120 H56        -0.5350    0.1950    4.5540 hc        1 MOL      0.068087
    121 N11         3.1100   -2.8660    0.6350 n         1 MOL     -0.721586
    122 C40         4.2340   -3.4940   -0.1230 c3        1 MOL      0.594051
    123 C41         5.6150   -2.6870   -0.0050 c         1 MOL      0.218573
    124 O16         5.6720   -1.6780    0.6670 o         1 MOL     -0.303666
    125 C42         3.7790   -3.5500   -1.5580 c3        1 MOL     -0.037753
    126 O17         2.4280   -4.0390   -1.7300 oh        1 MOL     -0.520594
    127 H57         2.8710   -1.8840    0.5240 hn        1 MOL      0.303295
    128 H58         4.3960   -4.5250    0.1910 h1        1 MOL      0.026440
    129 H59         4.4630   -4.2580   -2.0220 h1        1 MOL      0.023982
    130 H60         3.7980   -2.5510   -2.0030 h1        1 MOL      0.023982
    131 H61         2.1760   -3.8900   -2.6500 ho        1 MOL      0.404625
    132 N12         6.7420   -3.3250   -0.4260 n         1 MOL     -0.557299
    133 C43         8.0690   -2.8770   -0.1050 c3        1 MOL      0.377256
    134 C44         8.3400   -1.4100   -0.5030 c         1 MOL      0.250797
    135 O18         8.7000   -0.5660    0.3730 o         1 MOL     -0.474561
    136 C45         9.1330   -3.8430   -0.5860 c3        1 MOL     -0.465876
    137 H62         6.5790   -4.1450   -0.9970 hn        1 MOL      0.290168
    138 H63         8.1100   -2.9590    0.9840 h1        1 MOL      0.071597
    139 H64         8.9780   -4.8320   -0.1620 hc        1 MOL      0.134952
    140 H65         9.0000   -3.7140   -1.6560 hc        1 MOL      0.134952
    141 H66        10.1110   -3.4480   -0.2780 hc        1 MOL      0.134952
    142 N13         8.1390   -0.9880   -1.7170 n         1 MOL     -0.190481
    143 C46         8.3140    0.4270   -2.0620 c3        1 MOL      0.085280
    144 C47         7.2640    1.3460   -1.4290 c         1 MOL      0.507178
    145 O19         7.5340    2.4780   -0.9900 o         1 MOL     -0.514514
    146 C48         8.2180    0.4930   -3.6300 c3        1 MOL     -0.302935
    147 H67         8.0820   -1.6800   -2.4480 hn        1 MOL      0.226521
    148 H68         9.2050    0.9400   -1.7070 h1        1 MOL      0.086520
    149 H69         8.4750    1.4790   -4.0160 hc        1 MOL      0.084098
    150 H70         8.8550   -0.3340   -3.9590 hc        1 MOL      0.084098
    151 H71         7.2220    0.2320   -3.9680 hc        1 MOL      0.084098
    152 N14         6.0160    0.8580   -1.2350 n         1 MOL     -0.320687
    153 C49         4.9720    1.6150   -0.5580 c3        1 MOL     -0.128766
    154 C50         5.3370    1.9020    0.9220 c         1 MOL      0.484123
    155 O20         4.9650    2.8910    1.5880 o         1 MOL     -0.516831
    156 C51         3.5690    0.9780   -0.6230 c3        1 MOL      0.242775
    157 C52         2.5580    2.1000   -0.7000 c3        1 MOL     -0.054183
    158 C53         1.1360    1.6010   -0.4770 c         1 MOL      0.681791
    159 O21         0.7260    0.9370    0.4680 o         1 MOL     -0.745086
    160 O22         0.4720    1.6720   -1.5300 o         1 MOL     -0.745086
    161 H72         5.8180   -0.0790   -1.5500 hn        1 MOL      0.164478
    162 H73         4.9420    2.5980   -1.0330 h1        1 MOL      0.083141
    163 H74         3.4860    0.3590    0.2690 hc        1 MOL     -0.034647
    164 H75         3.4930    0.2560   -1.4420 hc        1 MOL     -0.034647
    165 H76         2.6440    2.6340   -1.6520 hc        1 MOL     -0.035246
    166 H77         2.8340    2.8410    0.0430 hc        1 MOL     -0.035246
    167 N15         6.1430    0.9300    1.5020 n         1 MOL     -0.096399
    168 C54         6.6820    1.0510    2.8960 c3        1 MOL     -0.271666
    169 H78         7.6860    1.4740    2.8610 h1        1 MOL      0.114400
    170 H79         6.0330    1.7040    3.4810 h1        1 MOL      0.114400
    171 H80         6.7190    0.0650    3.3580 h1        1 MOL      0.114400
    172 H81         6.2990    0.1200    0.9310 hn        1 MOL      0.056278
    173 Ca1        -1.2440   -0.1870   -0.7720 Ca        1 MOL      1.757220
    174 O23        -1.0530   -0.6930   -3.3960 oh        1 MOL     -0.873595
    175 H82        -1.5020    0.0660   -3.7630 ho        1 MOL      0.404482
    176 H83        -1.0680   -1.3470   -4.0960 ho        1 MOL      0.404482
    177 O24         0.8380   -1.9690   -1.1340 oh        1 MOL     -0.873595
    178 H84         1.3210   -1.6470   -1.8930 ho        1 MOL      0.404482
    179 H85         1.2400   -2.8030   -0.9290 ho        1 MOL      0.404482
@<TRIPOS>BOND
     1    1    2 1   
     2    1    4 1   
     3    1    5 1   
     4    1    6 1   
     5    2    3 2   
     6    2    7 1   
     7    7    8 1   
     8    7   15 1   
     9    8    9 1   
    10    8   11 1   
    11    8   16 1   
    12    9   10 2   
    13    9   19 1   
    14   11   12 1   
    15   11   17 1   
    16   11   18 1   
    17   12   13 1   
    18   12   14 1   
    19   19   20 1   
    20   19   28 1   
    21   20   21 1   
    22   20   23 1   
    23   20   29 1   
    24   21   22 2   
    25   21   41 1   
    26   23   24 1   
    27   23   30 1   
    28   23   31 1   
    29   24   25 1   
    30   24   32 1   
    31   24   33 1   
    32   25   26 1   
    33   25   34 1   
    34   25   35 1   
    35   26   27 1   
    36   26   36 1   
    37   26   37 1   
    38   27   38 1   
    39   27   39 1   
    40   27   40 1   
    41   41   42 1   
    42   41   49 1   
    43   42   43 1   
    44   42   45 1   
    45   42   50 1   
    46   43   44 2   
    47   43   53 1   
    48   45   46 1   
    49   45   51 1   
    50   45   52 1   
    51   46   47 1   
    52   46   48 1   
    53   53   54 1   
    54   53   57 1   
    55   54   55 1   
    56   54   58 1   
    57   54   59 1   
    58   55   56 2   
    59   55   60 1   
    60   60   61 1   
    61   60   68 1   
    62   61   62 1   
    63   61   64 1   
    64   61   69 1   
    65   62   63 2   
    66   62   74 1   
    67   64   65 1   
    68   64   70 1   
    69   64   71 1   
    70   65   66 1   
    71   65   67 2   
    72   66   72 1   
    73   66   73 1   
    74   74   75 1   
    75   74   78 1   
    76   75   76 1   
    77   75   79 1   
    78   75   80 1   
    79   76   77 2   
    80   76   81 1   
    81   81   82 1   
    82   81   93 1   
    83   82   83 1   
    84   82   85 1   
    85   82   94 1   
    86   83   84 2   
    87   83  102 1   
    88   85   86 1   
    89   85   95 1   
    90   85   96 1   
    91   86   87 ar  
    92   86   88 ar  
    93   87   89 ar  
    94   87   97 1   
    95   88   90 ar  
    96   88   98 1   
    97   89   91 ar  
    98   89   99 1   
    99   90   91 ar  
   100   90  100 1   
   101   91   92 1   
   102   92  101 1   
   103  102  103 1   
   104  102  110 1   
   105  103  104 1   
   106  103  106 1   
   107  103  111 1   
   108  104  105 2   
   109  104  121 1   
   110  106  107 1   
   111  106  108 1   
   112  106  112 1   
   113  107  109 1   
   114  107  113 1   
   115  107  114 1   
   116  108  115 1   
   117  108  116 1   
   118  108  117 1   
   119  109  118 1   
   120  109  119 1   
   121  109  120 1   
   122  121  122 1   
   123  121  127 1   
   124  122  123 1   
   125  122  125 1   
   126  122  128 1   
   127  123  124 2   
   128  123  132 1   
   129  125  126 1   
   130  125  129 1   
   131  125  130 1   
   132  126  131 1   
   133  132  133 1   
   134  132  137 1   
   135  133  134 1   
   136  133  136 1   
   137  133  138 1   
   138  134  135 2   
   139  134  142 1   
   140  136  139 1   
   141  136  140 1   
   142  136  141 1   
   143  142  143 1   
   144  142  147 1   
   145  143  144 1   
   146  143  146 1   
   147  143  148 1   
   148  144  145 2   
   149  144  152 1   
   150  146  149 1   
   151  146  150 1   
   152  146  151 1   
   153  152  153 1   
   154  152  161 1   
   155  153  154 1   
   156  153  156 1   
   157  153  162 1   
   158  154  155 2   
   159  154  167 1   
   160  156  157 1   
   161  156  163 1   
   162  156  164 1   
   163  157  158 1   
   164  157  165 1   
   165  157  166 1   
   166  158  159 1   
   167  158  160 1   
   168  167  168 1   
   169  167  172 1   
   170  168  169 1   
   171  168  170 1   
   172  168  171 1   
   173  174  175 1   
   174  174  176 1   
   175  177  178 1   
   176  177  179 1   
@<TRIPOS>SUBSTRUCTURE
     1 MOL         1 TEMP              0 ****  ****    0 ROOT
