@<TRIPOS>MOLECULE
MOL
  189   185     1     0     0
SMALL
resp


@<TRIPOS>ATOM
      1 C1         -0.3730    2.2330    5.9390 c3        1 MOL     -0.272016
      2 C2         -0.7600    1.9710    4.4920 c         1 MOL      0.648625
      3 O1          0.0530    2.2460    3.6080 o         1 MOL     -0.627621
      4 H1          0.7100    2.3330    6.0120 hc        1 MOL      0.072189
      5 H2         -0.8470    3.1520    6.2820 hc        1 MOL      0.072189
      6 H3         -0.7020    1.4000    6.5590 hc        1 MOL      0.072189
      7 N1         -1.8620    1.3510    4.2070 n         1 MOL     -0.520585
      8 C3         -2.5060    1.3640    2.8730 c3        1 MOL      0.131226
      9 C4         -2.9650    2.7690    2.3910 c         1 MOL      0.442113
     10 O2         -4.0660    3.2230    2.6930 o         1 MOL     -0.526087
     11 C5         -3.6490    0.3400    2.7890 c3        1 MOL     -0.324515
     12 C6         -4.2870    0.0960    1.4450 c         1 MOL      0.795017
     13 O3         -3.7140    0.5670    0.4330 o         1 MOL     -0.663817
     14 O4         -5.3230   -0.5950    1.4620 o         1 MOL     -0.663817
     15 H4         -2.5210    1.1890    4.9480 hn        1 MOL      0.313961
     16 H5         -1.7190    1.0840    2.1750 h1        1 MOL      0.049781
     17 H6         -4.3890    0.7470    3.4650 hc        1 MOL      0.073777
     18 H7         -3.1640   -0.5280    3.2170 hc        1 MOL      0.073777
     19 N2         -2.0790    3.4890    1.6830 n         1 MOL     -0.130203
     20 C7         -2.1630    4.8920    1.1440 c3        1 MOL     -0.330347
     21 C8         -3.1780    5.1110   -0.0170 c         1 MOL      0.680822
     22 O5         -3.4610    6.2890   -0.3630 o         1 MOL     -0.621857
     23 C9         -0.7420    5.2230    0.5150 c3        1 MOL      0.049826
     24 C10        -0.5720    6.7370    0.3310 c3        1 MOL     -0.034292
     25 C11         0.7890    6.9420   -0.4420 c3        1 MOL     -0.096745
     26 C12         1.9680    6.8710    0.4970 c3        1 MOL      0.154379
     27 N3          3.1660    7.5720   -0.1050 n4        1 MOL     -0.428273
     28 H8         -1.2050    2.9830    1.5860 hn        1 MOL      0.192048
     29 H9         -2.4560    5.6000    1.9180 h1        1 MOL      0.138156
     30 H10        -0.5720    4.7000   -0.4270 hc        1 MOL      0.057908
     31 H11         0.0220    4.7970    1.1710 hc        1 MOL      0.057908
     32 H12        -0.4510    7.2130    1.2990 hc        1 MOL      0.051614
     33 H13        -1.3240    7.2450   -0.2790 hc        1 MOL      0.051614
     34 H14         0.6920    7.9910   -0.7360 hc        1 MOL      0.033575
     35 H15         0.8810    6.2590   -1.2920 hc        1 MOL      0.033575
     36 H16         2.1610    5.8300    0.7270 hx        1 MOL      0.052153
     37 H17         1.7110    7.3760    1.4270 hx        1 MOL      0.052153
     38 H18         3.1450    8.5690    0.0240 hn        1 MOL      0.335042
     39 H19         3.9790    7.0920    0.2610 hn        1 MOL      0.335042
     40 H20         3.1040    7.4640   -1.1040 hn        1 MOL      0.335042
     41 N4         -3.7510    4.1000   -0.5450 n         1 MOL     -0.418181
     42 C13        -4.6800    4.1160   -1.6930 c3        1 MOL      0.085500
     43 C14        -5.7950    3.1390   -1.6190 c         1 MOL      0.510140
     44 O6         -6.7060    3.2610   -2.4480 o         1 MOL     -0.567452
     45 C15        -3.9140    4.0770   -3.0140 c3        1 MOL     -0.325715
     46 C16        -2.8790    2.9220   -3.0770 c         1 MOL      0.860643
     47 O7         -2.0440    2.9070   -4.0300 o         1 MOL     -0.709781
     48 O8         -2.9750    1.9360   -2.3150 o         1 MOL     -0.709781
     49 H21        -3.3780    3.2040   -0.2690 hn        1 MOL      0.176991
     50 H22        -5.2860    5.0270   -1.7260 h1        1 MOL      0.105237
     51 H23        -3.2610    4.9430   -3.1230 hc        1 MOL      0.087648
     52 H24        -4.5570    3.9100   -3.8760 hc        1 MOL      0.087648
     53 N5         -5.8500    2.2730   -0.6290 n         1 MOL     -0.252002
     54 C17        -7.0430    1.6170   -0.0430 c3        1 MOL     -0.219308
     55 C18        -7.4810    0.4110   -0.7960 c         1 MOL      0.545627
     56 O9         -8.6330   -0.0540   -0.5750 o         1 MOL     -0.600299
     57 H25        -4.9400    2.1240   -0.2280 hn        1 MOL      0.194198
     58 H26        -7.8730    2.3240    0.0030 h1        1 MOL      0.132290
     59 H27        -6.8210    1.2680    0.9610 h1        1 MOL      0.132290
     60 N6         -6.6100   -0.2460   -1.5270 n         1 MOL     -0.256765
     61 C19        -6.8060   -1.4490   -2.2860 c3        1 MOL     -0.050062
     62 C20        -6.8170   -2.7040   -1.3200 c         1 MOL      0.389382
     63 O10        -6.9540   -3.8390   -1.7800 o         1 MOL     -0.516278
     64 C21        -5.7610   -1.6670   -3.3940 c3        1 MOL     -0.117890
     65 C22        -4.2830   -1.3290   -2.9670 c         1 MOL      0.560572
     66 O11        -3.9470   -1.7230   -1.7840 o         1 MOL     -0.621434
     67 O12        -3.4610   -0.6790   -3.6590 o         1 MOL     -0.621434
     68 H28        -5.6930    0.1710   -1.4860 hn        1 MOL      0.212110
     69 H29        -7.7440   -1.4120   -2.8410 h1        1 MOL      0.120863
     70 H30        -5.9950   -1.0740   -4.2730 hc        1 MOL      0.055635
     71 H31        -5.7570   -2.7160   -3.6940 hc        1 MOL      0.055635
     72 N7         -6.7710   -2.4970    0.0280 n         1 MOL     -0.137176
     73 C23        -6.7740   -3.5340    1.0670 c3        1 MOL     -0.342258
     74 C24        -5.4700   -4.3350    1.0920 c         1 MOL      0.613625
     75 O13        -5.4880   -5.4610    1.4820 o         1 MOL     -0.572076
     76 H32        -6.5710   -1.5690    0.3690 hn        1 MOL      0.276751
     77 H33        -7.5360   -4.2670    0.7840 h1        1 MOL      0.144089
     78 H34        -6.9040   -3.1120    2.0650 h1        1 MOL      0.144089
     79 N8         -4.3960   -3.7940    0.5250 n         1 MOL     -0.186561
     80 C25        -3.0650   -4.3860    0.4980 c3        1 MOL     -0.118190
     81 C26        -1.8980   -3.4560    0.7500 c         1 MOL      0.602576
     82 O14        -2.0340   -2.2620    0.6400 o         1 MOL     -0.600382
     83 C27        -2.9470   -5.1800   -0.8500 c3        1 MOL      0.532759
     84 C28        -3.9580   -6.3110   -1.0280 c3        1 MOL     -0.441374
     85 O15        -2.9630   -4.2760   -1.9110 oh        1 MOL     -0.645749
     86 H35        -4.4640   -2.9090    0.0530 hn        1 MOL      0.055337
     87 H36        -3.0090   -5.2110    1.2010 h1        1 MOL      0.040804
     88 H37        -1.9940   -5.7040   -0.8680 h1        1 MOL     -0.040124
     89 H38        -3.6060   -3.6280   -1.6230 ho        1 MOL      0.402017
     90 H39        -3.7580   -6.9890   -0.1990 hc        1 MOL      0.108212
     91 H40        -5.0090   -6.0060   -1.0960 hc        1 MOL      0.108212
     92 H41        -3.6550   -6.8480   -1.9280 hc        1 MOL      0.108212
     93 N9         -0.7250   -3.9940    1.0460 n         1 MOL     -0.584359
     94 C29         0.4690   -3.2070    1.4840 c3        1 MOL      0.079444
     95 C30         1.6220   -3.6010    0.5270 c         1 MOL      0.472531
     96 O16         2.0190   -4.7530    0.4590 o         1 MOL     -0.557875
     97 C31         0.8090   -3.3280    2.9140 c3        1 MOL      0.110201
     98 C32        -0.2700   -2.4830    3.6300 c3        1 MOL     -0.015348
     99 C33         2.2000   -2.7300    3.3030 c3        1 MOL     -0.284476
    100 C34        -0.1820   -2.6170    5.1510 c3        1 MOL     -0.314015
    101 H42        -0.6790   -4.9980    1.1290 hn        1 MOL      0.301635
    102 H43         0.2410   -2.1410    1.3840 h1        1 MOL      0.103864
    103 H44         0.7780   -4.3660    3.2530 hc        1 MOL      0.010739
    104 H45        -1.2560   -2.8700    3.3690 hc        1 MOL      0.068315
    105 H46        -0.1510   -1.4350    3.3400 hc        1 MOL      0.068315
    106 H47         2.1000   -1.6420    3.2560 hc        1 MOL      0.049072
    107 H48         2.4730   -3.0730    4.3000 hc        1 MOL      0.049072
    108 H49         2.9920   -3.0190    2.6120 hc        1 MOL      0.049072
    109 H50        -1.0680   -2.2450    5.6640 hc        1 MOL      0.078269
    110 H51        -0.0480   -3.6230    5.5490 hc        1 MOL      0.078269
    111 H52         0.7460   -2.1460    5.4630 hc        1 MOL      0.078269
    112 N10         2.2550   -2.6400   -0.1220 n         1 MOL     -0.203301
    113 C35         3.4160   -2.6710   -1.0890 c3        1 MOL     -0.023019
    114 C36         4.7420   -2.6020   -0.3020 c         1 MOL      0.389029
    115 O17         4.8640   -2.1360    0.8180 o         1 MOL     -0.332679
    116 C37         3.4340   -1.5620   -2.1870 c3        1 MOL      0.015765
    117 C38         2.0460   -1.4740   -2.8230 c3        1 MOL     -0.263245
    118 O18         3.6660   -0.3270   -1.6550 oh        1 MOL     -0.115247
    119 H53         1.7910   -1.7390   -0.1480 hn        1 MOL      0.340895
    120 H54         3.3790   -3.6830   -1.4990 h1        1 MOL      0.080842
    121 H55         4.1500   -1.7480   -2.9820 h1        1 MOL      0.024659
    122 H56         3.4230    0.2690   -2.3640 ho        1 MOL      0.301519
    123 H57         2.1610   -0.7840   -3.6480 hc        1 MOL      0.070904
    124 H58         1.7630   -2.4370   -3.2450 hc        1 MOL      0.070904
    125 H59         1.3810   -1.0670   -2.0560 hc        1 MOL      0.070904
    126 N11         5.8740   -2.8860   -0.9040 n         1 MOL     -0.348126
    127 C39         7.2390   -2.6110   -0.2970 c3        1 MOL     -0.070890
    128 C40         7.4610   -1.1380    0.0950 c         1 MOL      0.260803
    129 O19         8.0600   -0.8780    1.0810 o         1 MOL     -0.495786
    130 C41         8.3390   -2.9210   -1.3470 c3        1 MOL      0.232622
    131 C42         8.4240   -4.3450   -1.7820 c3        1 MOL     -0.465806
    132 O20         8.1650   -2.1970   -2.4850 oh        1 MOL     -0.577620
    133 H60         5.9060   -3.3860   -1.7830 hn        1 MOL      0.263897
    134 H61         7.2940   -3.2940    0.5540 h1        1 MOL      0.147466
    135 H62         9.3140   -2.6340   -0.9440 h1        1 MOL      0.043169
    136 H63         9.0270   -1.8200   -2.6860 ho        1 MOL      0.374800
    137 H64         9.2590   -4.5460   -2.4570 hc        1 MOL      0.136926
    138 H65         8.5690   -5.0110   -0.9330 hc        1 MOL      0.136926
    139 H66         7.5650   -4.7300   -2.3400 hc        1 MOL      0.136926
    140 N12         6.7910   -0.1960   -0.5450 n         1 MOL      0.212079
    141 C43         6.8040    1.2520   -0.2620 c3        1 MOL      0.092450
    142 C44         5.9870    1.6190    1.0140 c         1 MOL      0.246456
    143 O21         6.5050    2.2730    1.9460 o         1 MOL     -0.487354
    144 C45         6.3430    2.0690   -1.5000 c3        1 MOL     -0.344797
    145 C46         7.0060    1.6210   -2.7940 c3        1 MOL      0.204661
    146 C47         8.5520    1.4360   -2.8380 c3        1 MOL     -0.130958
    147 C48         9.1810    1.2300   -4.2540 c3        1 MOL      0.052958
    148 N13        10.6330    1.1700   -4.1200 n4        1 MOL     -0.342964
    149 H67         6.1660   -0.4610   -1.2900 hn        1 MOL     -0.014673
    150 H68         7.8270    1.5480   -0.0240 h1        1 MOL      0.024042
    151 H69         6.5680    3.1120   -1.2780 hc        1 MOL      0.097852
    152 H70         5.2620    1.9770   -1.6600 hc        1 MOL      0.097852
    153 H71         6.5630    2.1860   -3.6110 hc        1 MOL     -0.031029
    154 H72         6.4660    0.7010   -3.0080 hc        1 MOL     -0.031029
    155 H73         8.7950    0.5630   -2.2320 hc        1 MOL      0.041321
    156 H74         8.9990    2.3300   -2.3850 hc        1 MOL      0.041321
    157 H75         8.8860    2.0900   -4.8600 hx        1 MOL      0.079181
    158 H76         8.7520    0.3270   -4.7030 hx        1 MOL      0.079181
    159 H77        10.9470    2.0880   -3.8620 hn        1 MOL      0.287914
    160 H78        10.9410    0.4620   -3.4650 hn        1 MOL      0.287914
    161 H79        11.0700    1.0020   -5.0170 hn        1 MOL      0.287914
    162 N14         4.7750    1.0510    1.0960 n         1 MOL      0.142800
    163 C49         3.7970    1.2190    2.1320 c3        1 MOL     -0.153719
    164 C50         4.3270    0.5480    3.4060 c         1 MOL      0.408880
    165 O22         4.1580    1.0930    4.4690 o         1 MOL     -0.517794
    166 C51         2.5260    0.5980    1.7710 c3        1 MOL      0.238055
    167 C52         1.8360    1.4690    0.6230 c3        1 MOL     -0.522954
    168 C53         0.4830    0.9000    0.2380 c         1 MOL      0.805950
    169 O23         0.3320   -0.3260    0.0260 o         1 MOL     -0.773194
    170 O24        -0.5400    1.6060    0.0330 o         1 MOL     -0.773194
    171 H80         4.5130    0.4630    0.3220 hn        1 MOL     -0.227921
    172 H81         3.6340    2.2720    2.3220 h1        1 MOL      0.091216
    173 H82         1.9400    0.4850    2.6850 hc        1 MOL      0.055234
    174 H83         2.7040   -0.4210    1.4160 hc        1 MOL      0.055234
    175 H84         2.5080    1.5460   -0.2400 hc        1 MOL      0.094471
    176 H85         1.7500    2.4890    0.9770 hc        1 MOL      0.094471
    177 N15         5.0890   -0.5920    3.2570 n         1 MOL     -0.022810
    178 C54         5.8460   -1.2740    4.2730 c3        1 MOL     -0.365078
    179 H86         6.9040   -1.0360    4.1590 h1        1 MOL      0.120848
    180 H87         5.5060   -0.9510    5.2570 h1        1 MOL      0.120848
    181 H88         5.7030   -2.3490    4.1730 h1        1 MOL      0.120848
    182 H89         5.0730   -0.9630    2.3260 hn        1 MOL      0.126453
    183 Ca1        -1.9820   -0.1810   -1.1730 Ca        1 MOL      1.729243
    184 O25        -0.9920   -2.3920   -2.2680 oh        1 MOL     -0.871749
    185 H90        -1.6420   -3.0900   -2.3200 ho        1 MOL      0.401685
    186 H91        -0.6650   -2.3120   -3.1700 ho        1 MOL      0.401685
    187 O26        -0.4530    0.4770   -3.2840 oh        1 MOL     -0.871749
    188 H92        -0.9330    1.2150   -3.6740 ho        1 MOL      0.401685
    189 H93         0.1660    0.2130   -3.9600 ho        1 MOL      0.401685
@<TRIPOS>BOND
     1    1    2 1   
     2    1    4 1   
     3    1    5 1   
     4    1    6 1   
     5    2    3 2   
     6    2    7 1   
     7    7    8 1   
     8    7   15 1   
     9    8    9 1   
    10    8   11 1   
    11    8   16 1   
    12    9   10 2   
    13    9   19 1   
    14   11   12 1   
    15   11   17 1   
    16   11   18 1   
    17   12   13 1   
    18   12   14 1   
    19   19   20 1   
    20   19   28 1   
    21   20   21 1   
    22   20   23 1   
    23   20   29 1   
    24   21   22 2   
    25   21   41 1   
    26   23   24 1   
    27   23   30 1   
    28   23   31 1   
    29   24   25 1   
    30   24   32 1   
    31   24   33 1   
    32   25   26 1   
    33   25   34 1   
    34   25   35 1   
    35   26   27 1   
    36   26   36 1   
    37   26   37 1   
    38   27   38 1   
    39   27   39 1   
    40   27   40 1   
    41   41   42 1   
    42   41   49 1   
    43   42   43 1   
    44   42   45 1   
    45   42   50 1   
    46   43   44 2   
    47   43   53 1   
    48   45   46 1   
    49   45   51 1   
    50   45   52 1   
    51   46   47 1   
    52   46   48 1   
    53   53   54 1   
    54   53   57 1   
    55   54   55 1   
    56   54   58 1   
    57   54   59 1   
    58   55   56 2   
    59   55   60 1   
    60   60   61 1   
    61   60   68 1   
    62   61   62 1   
    63   61   64 1   
    64   61   69 1   
    65   62   63 2   
    66   62   72 1   
    67   64   65 1   
    68   64   70 1   
    69   64   71 1   
    70   65   66 1   
    71   65   67 1   
    72   72   73 1   
    73   72   76 1   
    74   73   74 1   
    75   73   77 1   
    76   73   78 1   
    77   74   75 2   
    78   74   79 1   
    79   79   80 1   
    80   79   86 1   
    81   80   81 1   
    82   80   83 1   
    83   80   87 1   
    84   81   82 2   
    85   81   93 1   
    86   83   84 1   
    87   83   85 1   
    88   83   88 1   
    89   84   90 1   
    90   84   91 1   
    91   84   92 1   
    92   85   89 1   
    93   93   94 1   
    94   93  101 1   
    95   94   95 1   
    96   94   97 1   
    97   94  102 1   
    98   95   96 2   
    99   95  112 1   
   100   97   98 1   
   101   97   99 1   
   102   97  103 1   
   103   98  100 1   
   104   98  104 1   
   105   98  105 1   
   106   99  106 1   
   107   99  107 1   
   108   99  108 1   
   109  100  109 1   
   110  100  110 1   
   111  100  111 1   
   112  112  113 1   
   113  112  119 1   
   114  113  114 1   
   115  113  116 1   
   116  113  120 1   
   117  114  115 2   
   118  114  126 1   
   119  116  117 1   
   120  116  118 1   
   121  116  121 1   
   122  117  123 1   
   123  117  124 1   
   124  117  125 1   
   125  118  122 1   
   126  126  127 1   
   127  126  133 1   
   128  127  128 1   
   129  127  130 1   
   130  127  134 1   
   131  128  129 2   
   132  128  140 1   
   133  130  131 1   
   134  130  132 1   
   135  130  135 1   
   136  131  137 1   
   137  131  138 1   
   138  131  139 1   
   139  132  136 1   
   140  140  141 1   
   141  140  149 1   
   142  141  142 1   
   143  141  144 1   
   144  141  150 1   
   145  142  143 2   
   146  142  162 1   
   147  144  145 1   
   148  144  151 1   
   149  144  152 1   
   150  145  146 1   
   151  145  153 1   
   152  145  154 1   
   153  146  147 1   
   154  146  155 1   
   155  146  156 1   
   156  147  148 1   
   157  147  157 1   
   158  147  158 1   
   159  148  159 1   
   160  148  160 1   
   161  148  161 1   
   162  162  163 1   
   163  162  171 1   
   164  163  164 1   
   165  163  166 1   
   166  163  172 1   
   167  164  165 2   
   168  164  177 1   
   169  166  167 1   
   170  166  173 1   
   171  166  174 1   
   172  167  168 1   
   173  167  175 1   
   174  167  176 1   
   175  168  169 1   
   176  168  170 1   
   177  177  178 1   
   178  177  182 1   
   179  178  179 1   
   180  178  180 1   
   181  178  181 1   
   182  184  185 1   
   183  184  186 1   
   184  187  188 1   
   185  187  189 1   
@<TRIPOS>SUBSTRUCTURE
     1 MOL         1 TEMP              0 ****  ****    0 ROOT
