@<TRIPOS>MOLECULE
MOL
  186   183     1     0     0
SMALL
resp


@<TRIPOS>ATOM
      1 C1          0.7310   -1.3060    6.5600 c3        1 MOL     -0.345283
      2 C2          0.9950   -1.4350    5.0390 c         1 MOL      0.694074
      3 O1          0.0490   -1.7200    4.3110 o         1 MOL     -0.535805
      4 H1          1.6390   -0.9670    7.0570 hc        1 MOL      0.081335
      5 H2         -0.0670   -0.5840    6.7300 hc        1 MOL      0.081335
      6 H3          0.4370   -2.2760    6.9620 hc        1 MOL      0.081335
      7 N1          2.2000   -1.2060    4.5200 n         1 MOL     -0.580524
      8 C3          2.6010   -1.3870    3.1310 c3        1 MOL      0.259191
      9 C4          2.9470   -2.8990    2.9150 c         1 MOL      0.444551
     10 O2          3.6160   -3.5490    3.7270 o         1 MOL     -0.594807
     11 C5          3.9340   -0.5530    2.9410 c3        1 MOL     -0.353624
     12 C6          4.5790   -0.5660    1.5840 c         1 MOL      0.936784
     13 O3          4.0060   -1.1810    0.6180 o         1 MOL     -0.712232
     14 O4          5.6070    0.1340    1.4280 o         1 MOL     -0.712232
     15 H4          2.9880   -0.9680    5.1160 hn        1 MOL      0.309082
     16 H5          1.8510   -1.0830    2.4050 h1        1 MOL     -0.036781
     17 H6          4.6550   -1.0090    3.6260 hc        1 MOL      0.059137
     18 H7          3.7530    0.4760    3.2850 hc        1 MOL      0.059137
     19 N2          2.3860   -3.4000    1.8640 n         1 MOL      0.033781
     20 C7          2.4720   -4.7740    1.4670 c3        1 MOL      0.015742
     21 C8          3.5230   -5.0090    0.2940 c         1 MOL      0.351915
     22 O5          4.4340   -5.9020    0.4300 o         1 MOL     -0.570668
     23 C9          1.0940   -5.2920    1.0510 c3        1 MOL      0.069575
     24 C10        -0.0220   -5.2070    2.1330 c3        1 MOL     -0.196903
     25 C11         1.1560   -6.7530    0.5310 c3        1 MOL     -0.374433
     26 C12         0.4230   -5.7510    3.4660 c3        1 MOL     -0.151039
     27 H8          1.8190   -2.8310    1.2580 hn        1 MOL      0.060299
     28 H9          2.8560   -5.3370    2.3140 h1        1 MOL      0.063819
     29 H10         0.7660   -4.7730    0.1530 hc        1 MOL      0.041621
     30 H11        -0.9650   -5.7260    1.9200 hc        1 MOL      0.086654
     31 H12        -0.2480   -4.1740    2.4320 hc        1 MOL      0.086654
     32 H13         1.6190   -6.7910   -0.4610 hc        1 MOL      0.096502
     33 H14         1.7270   -7.2480    1.3160 hc        1 MOL      0.096502
     34 H15         0.1570   -7.2060    0.5390 hc        1 MOL      0.096502
     35 H16         1.3620   -5.3500    3.8500 hc        1 MOL      0.037019
     36 H17        -0.3460   -5.4260    4.1560 hc        1 MOL      0.037019
     37 H18         0.4630   -6.8480    3.4090 hc        1 MOL      0.037019
     38 N3          3.5180   -4.2640   -0.8380 n         1 MOL     -0.115365
     39 C13         4.3850   -4.4590   -2.0050 c3        1 MOL      0.019271
     40 C14         5.7550   -3.8440   -1.7980 c         1 MOL      0.457706
     41 O6          6.7530   -4.3280   -2.3590 o         1 MOL     -0.587303
     42 C15         3.8180   -4.1490   -3.3320 c3        1 MOL     -0.320148
     43 C16         3.1840   -2.7580   -3.4290 c         1 MOL      0.786380
     44 O7          3.0960   -2.0050   -2.4030 o         1 MOL     -0.691351
     45 O8          2.6440   -2.3710   -4.4890 o         1 MOL     -0.691351
     46 H19         2.9610   -3.4290   -0.7510 hn        1 MOL      0.122163
     47 H20         4.6220   -5.5210   -2.0060 h1        1 MOL      0.086986
     48 H21         3.0130   -4.8660   -3.4700 hc        1 MOL      0.087982
     49 H22         4.4880   -4.2580   -4.1840 hc        1 MOL      0.087982
     50 N4          5.8580   -2.9050   -0.8700 n         1 MOL      0.075093
     51 C17         7.1180   -2.3010   -0.4950 c3        1 MOL     -0.298086
     52 C18         7.4830   -1.0910   -1.3100 c         1 MOL      0.718323
     53 O9          8.3890   -1.2270   -2.1590 o         1 MOL     -0.593543
     54 H23         4.9580   -2.6250   -0.5070 hn        1 MOL     -0.045065
     55 H24         7.8380   -3.0730   -0.7550 h1        1 MOL      0.089127
     56 H25         7.1390   -2.1290    0.5860 h1        1 MOL      0.089127
     57 N5          6.9920    0.0960   -0.9860 n         1 MOL     -0.513525
     58 C19         7.4300    1.3350   -1.6690 c3        1 MOL      0.093247
     59 C20         7.5630    2.5530   -0.7450 c         1 MOL      0.427858
     60 O10         8.0920    3.5770   -1.1500 o         1 MOL     -0.560899
     61 C21         6.3730    1.6030   -2.8230 c3        1 MOL     -0.259667
     62 C22         4.8670    1.4490   -2.4740 c         1 MOL      0.671072
     63 O11         4.1050    0.8420   -3.3200 o         1 MOL     -0.696770
     64 O12         4.3300    1.9080   -1.4310 o         1 MOL     -0.696770
     65 H26         6.4220    0.1180   -0.1510 hn        1 MOL      0.217923
     66 H27         8.4290    1.1690   -2.0610 h1        1 MOL      0.060801
     67 H28         6.5860    0.9460   -3.6660 hc        1 MOL      0.084344
     68 H29         6.5670    2.6500   -3.0660 hc        1 MOL      0.084344
     69 N6          6.9640    2.5480    0.4640 n         1 MOL     -0.170396
     70 C23         7.0120    3.6860    1.3650 c3        1 MOL     -0.121548
     71 C24         5.6730    4.3710    1.6080 c         1 MOL      0.586740
     72 O13         5.6650    5.4190    2.2790 o         1 MOL     -0.603388
     73 H30         6.6040    1.6520    0.7490 hn        1 MOL      0.208510
     74 H31         7.5690    4.4850    0.8780 h1        1 MOL      0.077452
     75 H32         7.5490    3.4300    2.2800 h1        1 MOL      0.077452
     76 N7          4.5170    3.7390    1.2230 n         1 MOL     -0.409580
     77 C25         3.1810    4.3430    1.2160 c3        1 MOL      0.123575
     78 C26         2.1130    3.1620    1.1220 c         1 MOL      0.482885
     79 O14         2.4500    2.0020    0.8440 o         1 MOL     -0.517920
     80 C27         2.9570    5.3080   -0.0040 c3        1 MOL      0.116065
     81 C28         3.4590    6.7510    0.1120 c3        1 MOL     -0.305549
     82 C29         3.1380    7.4720   -1.1830 c         1 MOL      0.636758
     83 N8          3.8030    7.1190   -2.3040 n         1 MOL     -0.819585
     84 O15         2.2410    8.3190   -1.3600 o         1 MOL     -0.571670
     85 H33         4.5510    2.8540    0.7420 hn        1 MOL      0.204382
     86 H34         2.9720    4.8530    2.1460 h1        1 MOL      0.055364
     87 H35         1.8790    5.3410   -0.1800 hc        1 MOL     -0.000058
     88 H36         3.4090    4.9140   -0.9030 hc        1 MOL     -0.000058
     89 H37         4.5400    6.8620    0.1730 hc        1 MOL      0.093226
     90 H38         3.0390    7.2400    0.9930 hc        1 MOL      0.093226
     91 H39         4.5710    6.4670   -2.2290 hn        1 MOL      0.376227
     92 H40         3.6610    7.6340   -3.1520 hn        1 MOL      0.376227
     93 N9          0.8250    3.4760    1.5400 n         1 MOL     -0.589792
     94 C30        -0.2230    2.4650    1.8410 c3        1 MOL      0.240888
     95 C31        -1.4100    2.8710    1.0250 c         1 MOL      0.237131
     96 O16        -2.0570    3.9270    1.4290 o         1 MOL     -0.566736
     97 C32        -0.5840    2.4960    3.3440 c3        1 MOL      0.425184
     98 C33        -1.5280    1.2770    3.6590 c3        1 MOL     -0.325186
     99 C34         0.5850    2.4360    4.2600 c3        1 MOL     -0.325186
    100 H41         0.5700    4.4120    1.8420 hn        1 MOL      0.288074
    101 H42         0.0640    1.4470    1.5890 h1        1 MOL      0.070262
    102 H43        -1.1010    3.4030    3.6580 hc        1 MOL     -0.073367
    103 H44        -2.4450    1.3750    3.0850 hc        1 MOL      0.055291
    104 H45        -1.0050    0.3780    3.3300 hc        1 MOL      0.055291
    105 H46        -1.7330    1.2500    4.7320 hc        1 MOL      0.055291
    106 H47         1.1160    1.4930    4.1630 hc        1 MOL      0.055291
    107 H48         1.3340    3.2080    4.0670 hc        1 MOL      0.055291
    108 H49         0.2950    2.5620    5.3090 hc        1 MOL      0.055291
    109 N10        -1.8350    2.1070    0.0050 n         1 MOL      0.038991
    110 C35        -2.9820    2.4220   -0.8540 c3        1 MOL      0.020639
    111 C36        -4.3240    2.1120   -0.0840 c         1 MOL      0.292064
    112 O17        -4.3120    1.2820    0.8750 o         1 MOL     -0.246529
    113 C37        -2.7950    1.4990   -2.0440 c3        1 MOL     -0.650591
    114 C38        -3.8030    1.8170   -3.0990 c         1 MOL      0.900077
    115 N11        -3.6210    3.0020   -3.6850 n         1 MOL     -0.872905
    116 O18        -4.7210    1.1370   -3.3810 o         1 MOL     -0.585667
    117 H50        -1.1250    1.4210   -0.2170 hn        1 MOL      0.088799
    118 H51        -2.8680    3.4550   -1.1800 h1        1 MOL      0.061225
    119 H52        -2.9800    0.4760   -1.7270 hc        1 MOL      0.264572
    120 H53        -1.8000    1.6880   -2.4450 hc        1 MOL      0.264572
    121 H54        -2.7840    3.5110   -3.4290 hn        1 MOL      0.371714
    122 H55        -4.2640    3.3530   -4.3760 hn        1 MOL      0.371714
    123 N12        -5.4380    2.5990   -0.6340 n         1 MOL     -0.348372
    124 C39        -6.8020    2.0450   -0.1680 c3        1 MOL      0.084709
    125 C40        -6.9020    0.4530   -0.2220 c         1 MOL      0.763186
    126 O19        -7.3690   -0.1100    0.7480 o         1 MOL     -0.535214
    127 C41        -7.8720    2.6820   -1.0430 c3        1 MOL     -0.146388
    128 C42        -9.2050    2.2720   -0.5040 ca        1 MOL      0.181252
    129 C43        -9.7110    2.9180    0.6590 ca        1 MOL     -0.333953
    130 C44       -10.0010    1.3200   -1.1530 ca        1 MOL     -0.333953
    131 C45       -10.8730    2.3520    1.2350 ca        1 MOL     -0.107725
    132 C46       -11.1740    0.8250   -0.6060 ca        1 MOL     -0.107725
    133 C47       -11.5840    1.3670    0.5860 ca        1 MOL      0.239889
    134 O20       -12.7030    0.9600    1.2060 oh        1 MOL     -0.508957
    135 H56        -5.4250    3.3790   -1.2800 hn        1 MOL      0.258411
    136 H57        -6.9510    2.2930    0.8880 h1        1 MOL      0.060703
    137 H58        -7.7750    2.3920   -2.0960 hc        1 MOL      0.049420
    138 H59        -7.9050    3.7710   -0.9450 hc        1 MOL      0.049420
    139 H60        -9.1120    3.6940    1.1290 ha        1 MOL      0.173483
    140 H61        -9.4880    0.8990   -2.0150 ha        1 MOL      0.173483
    141 H62       -11.2070    2.6930    2.2070 ha        1 MOL      0.115966
    142 H63       -11.8130    0.1220   -1.1340 ha        1 MOL      0.115966
    143 H64       -13.2000    0.3830    0.6170 ho        1 MOL      0.369734
    144 N13        -6.4620   -0.1880   -1.3170 n         1 MOL     -0.632562
    145 C48        -6.3500   -1.6320   -1.5250 c3        1 MOL      0.135335
    146 C49        -5.6040   -2.3220   -0.4150 c         1 MOL      0.298159
    147 O21        -5.9530   -3.3890    0.0430 o         1 MOL     -0.537775
    148 C50        -5.6430   -1.7740   -2.8460 c3        1 MOL     -0.083625
    149 C51        -5.7640   -3.2750   -3.3280 c3        1 MOL     -0.310246
    150 C52        -5.3320   -3.5200   -4.8340 c         1 MOL      0.724740
    151 O22        -4.1630   -3.3200   -5.1440 o         1 MOL     -0.740431
    152 O23        -6.2160   -3.8360   -5.7180 o         1 MOL     -0.740431
    153 H65        -6.0850    0.3760   -2.0610 hn        1 MOL      0.324905
    154 H66        -7.2760   -2.1940   -1.6000 h1        1 MOL      0.083041
    155 H67        -4.5510   -1.6790   -2.8240 hc        1 MOL      0.113313
    156 H68        -6.1730   -1.1050   -3.5280 hc        1 MOL      0.113313
    157 H69        -6.8260   -3.5250   -3.3210 hc        1 MOL      0.044077
    158 H70        -5.2250   -3.9680   -2.6850 hc        1 MOL      0.044077
    159 N14        -4.6210   -1.6760    0.2050 n         1 MOL      0.463553
    160 C53        -3.7620   -2.2260    1.2570 c3        1 MOL     -0.067253
    161 C54        -4.2720   -1.9310    2.7250 c         1 MOL      0.381917
    162 O24        -4.1470   -2.7610    3.6590 o         1 MOL     -0.541770
    163 C55        -2.2730   -1.6680    1.0980 c3        1 MOL      0.128717
    164 C56        -1.5990   -2.1660   -0.1730 c3        1 MOL     -0.225253
    165 C57        -0.2450   -1.4300   -0.3970 c         1 MOL      0.684504
    166 O25         0.8310   -2.0470   -0.4240 o         1 MOL     -0.681141
    167 O26        -0.1430   -0.1390   -0.4240 o         1 MOL     -0.681141
    168 H71        -4.3940   -0.7380   -0.0670 hn        1 MOL     -0.800869
    169 H72        -3.6600   -3.3030    1.1790 h1        1 MOL      0.070815
    170 H73        -1.7110   -2.1070    1.9320 hc        1 MOL      0.007985
    171 H74        -2.2480   -0.5830    1.1330 hc        1 MOL      0.007985
    172 H75        -2.2530   -2.0290   -1.0280 hc        1 MOL      0.112541
    173 H76        -1.3390   -3.2250   -0.0850 hc        1 MOL      0.112541
    174 N15        -4.8410   -0.7420    2.8970 n         1 MOL     -0.033801
    175 C58        -5.6860   -0.3190    4.0430 c3        1 MOL     -0.185315
    176 H77        -5.0480    0.0310    4.8550 h1        1 MOL      0.069039
    177 H78        -6.3480    0.4880    3.7290 h1        1 MOL      0.069039
    178 H79        -6.2810   -1.1650    4.3890 h1        1 MOL      0.069039
    179 H80        -4.8210   -0.0070    2.2140 hn        1 MOL      0.136034
    180 Ca1         2.3570    0.0670   -1.1240 Ca        1 MOL      1.700949
    181 O27         1.8830    2.5120   -1.9530 oh        1 MOL     -0.863800
    182 H81         1.5330    3.2490   -2.4460 ho        1 MOL      0.404523
    183 H82         2.8110    2.7130   -1.8230 ho        1 MOL      0.404523
    184 O28         0.9680   -0.2310   -3.5700 oh        1 MOL     -0.863800
    185 H83         0.9050    0.1890   -4.4250 ho        1 MOL      0.404523
    186 H84         1.5920   -0.9480   -3.7030 ho        1 MOL      0.404523
@<TRIPOS>BOND
     1    1    2 1   
     2    1    4 1   
     3    1    5 1   
     4    1    6 1   
     5    2    3 2   
     6    2    7 1   
     7    7    8 1   
     8    7   15 1   
     9    8    9 1   
    10    8   11 1   
    11    8   16 1   
    12    9   10 2   
    13    9   19 1   
    14   11   12 1   
    15   11   17 1   
    16   11   18 1   
    17   12   13 1   
    18   12   14 1   
    19   19   20 1   
    20   19   27 1   
    21   20   21 1   
    22   20   23 1   
    23   20   28 1   
    24   21   22 2   
    25   21   38 1   
    26   23   24 1   
    27   23   25 1   
    28   23   29 1   
    29   24   26 1   
    30   24   30 1   
    31   24   31 1   
    32   25   32 1   
    33   25   33 1   
    34   25   34 1   
    35   26   35 1   
    36   26   36 1   
    37   26   37 1   
    38   38   39 1   
    39   38   46 1   
    40   39   40 1   
    41   39   42 1   
    42   39   47 1   
    43   40   41 2   
    44   40   50 1   
    45   42   43 1   
    46   42   48 1   
    47   42   49 1   
    48   43   44 1   
    49   43   45 1   
    50   50   51 1   
    51   50   54 1   
    52   51   52 1   
    53   51   55 1   
    54   51   56 1   
    55   52   53 2   
    56   52   57 1   
    57   57   58 1   
    58   57   65 1   
    59   58   59 1   
    60   58   61 1   
    61   58   66 1   
    62   59   60 2   
    63   59   69 1   
    64   61   62 1   
    65   61   67 1   
    66   61   68 1   
    67   62   63 1   
    68   62   64 1   
    69   69   70 1   
    70   69   73 1   
    71   70   71 1   
    72   70   74 1   
    73   70   75 1   
    74   71   72 2   
    75   71   76 1   
    76   76   77 1   
    77   76   85 1   
    78   77   78 1   
    79   77   80 1   
    80   77   86 1   
    81   78   79 2   
    82   78   93 1   
    83   80   81 1   
    84   80   87 1   
    85   80   88 1   
    86   81   82 1   
    87   81   89 1   
    88   81   90 1   
    89   82   83 1   
    90   82   84 2   
    91   83   91 1   
    92   83   92 1   
    93   93   94 1   
    94   93  100 1   
    95   94   95 1   
    96   94   97 1   
    97   94  101 1   
    98   95   96 2   
    99   95  109 1   
   100   97   98 1   
   101   97   99 1   
   102   97  102 1   
   103   98  103 1   
   104   98  104 1   
   105   98  105 1   
   106   99  106 1   
   107   99  107 1   
   108   99  108 1   
   109  109  110 1   
   110  109  117 1   
   111  110  111 1   
   112  110  113 1   
   113  110  118 1   
   114  111  112 2   
   115  111  123 1   
   116  113  114 1   
   117  113  119 1   
   118  113  120 1   
   119  114  115 1   
   120  114  116 2   
   121  115  121 1   
   122  115  122 1   
   123  123  124 1   
   124  123  135 1   
   125  124  125 1   
   126  124  127 1   
   127  124  136 1   
   128  125  126 2   
   129  125  144 1   
   130  127  128 1   
   131  127  137 1   
   132  127  138 1   
   133  128  129 ar  
   134  128  130 ar  
   135  129  131 ar  
   136  129  139 1   
   137  130  132 ar  
   138  130  140 1   
   139  131  133 ar  
   140  131  141 1   
   141  132  133 ar  
   142  132  142 1   
   143  133  134 1   
   144  134  143 1   
   145  144  145 1   
   146  144  153 1   
   147  145  146 1   
   148  145  148 1   
   149  145  154 1   
   150  146  147 2   
   151  146  159 1   
   152  148  149 1   
   153  148  155 1   
   154  148  156 1   
   155  149  150 1   
   156  149  157 1   
   157  149  158 1   
   158  150  151 1   
   159  150  152 1   
   160  159  160 1   
   161  159  168 1   
   162  160  161 1   
   163  160  163 1   
   164  160  169 1   
   165  161  162 2   
   166  161  174 1   
   167  163  164 1   
   168  163  170 1   
   169  163  171 1   
   170  164  165 1   
   171  164  172 1   
   172  164  173 1   
   173  165  166 1   
   174  165  167 1   
   175  174  175 1   
   176  174  179 1   
   177  175  176 1   
   178  175  177 1   
   179  175  178 1   
   180  181  182 1   
   181  181  183 1   
   182  184  185 1   
   183  184  186 1   
@<TRIPOS>SUBSTRUCTURE
     1 MOL         1 TEMP              0 ****  ****    0 ROOT
