@<TRIPOS>MOLECULE
MOL
  186   183     1     0     0
SMALL
resp


@<TRIPOS>ATOM
      1 C1          0.3400    3.3980   -5.0360 c3        1 MOL     -0.304889
      2 C2          0.7230    2.9520   -3.6640 c         1 MOL      0.677626
      3 O1         -0.0160    2.9760   -2.6760 o         1 MOL     -0.600971
      4 H1          1.2260    3.7490   -5.5630 hc        1 MOL      0.079964
      5 H2         -0.0990    2.5620   -5.5800 hc        1 MOL      0.079964
      6 H3         -0.3870    4.2070   -4.9650 hc        1 MOL      0.079964
      7 N1          1.8790    2.2590   -3.6050 n         1 MOL     -0.592454
      8 C3          2.4360    1.7550   -2.3700 c3        1 MOL      0.122884
      9 C4          3.0750    2.9940   -1.6620 c         1 MOL      0.355808
     10 O2          4.0490    3.4990   -2.2270 o         1 MOL     -0.529107
     11 C5          3.3650    0.5480   -2.6320 c3        1 MOL     -0.359004
     12 C6          4.0620    0.1170   -1.4280 c         1 MOL      0.939640
     13 O3          3.6170    0.3530   -0.2640 o         1 MOL     -0.721509
     14 O4          5.1770   -0.4750   -1.5230 o         1 MOL     -0.721509
     15 H4          2.4390    2.1170   -4.4340 hn        1 MOL      0.344992
     16 H5          1.6410    1.3910   -1.7240 h1        1 MOL      0.063167
     17 H6          4.1220    0.9050   -3.3360 hc        1 MOL      0.087580
     18 H7          2.8130   -0.2970   -3.0440 hc        1 MOL      0.087580
     19 N2          2.6700    3.4420   -0.4650 n         1 MOL      0.006633
     20 C7          3.0090    4.7650    0.0250 c3        1 MOL      0.014397
     21 C8          3.9070    4.6550    1.2260 c         1 MOL      0.379145
     22 O5          4.7830    5.4730    1.3710 o         1 MOL     -0.525831
     23 C9          1.7120    5.5550    0.4530 c3        1 MOL     -0.173258
     24 C10         0.6570    5.8880   -0.6170 c3        1 MOL      0.110929
     25 C11         1.3020    6.8780   -1.6350 c3        1 MOL     -0.129217
     26 C12         0.3480    7.7690   -2.4140 c3        1 MOL     -0.177320
     27 N3         -0.6260    6.8920   -3.1550 n4        1 MOL     -0.283103
     28 H8          1.9450    2.8840   -0.0510 hn        1 MOL      0.202080
     29 H9          3.4630    5.3030   -0.8100 h1        1 MOL      0.036647
     30 H10         1.9880    6.5390    0.8320 hc        1 MOL      0.053088
     31 H11         1.2220    5.1010    1.3150 hc        1 MOL      0.053088
     32 H12        -0.1730    6.4110   -0.1600 hc        1 MOL      0.011199
     33 H13         0.3320    4.9520   -1.0640 hc        1 MOL      0.011199
     34 H14         1.9460    6.3250   -2.3140 hc        1 MOL      0.084274
     35 H15         1.9080    7.5270   -1.0050 hc        1 MOL      0.084274
     36 H16         0.9040    8.3890   -3.1090 hx        1 MOL      0.150937
     37 H17        -0.1210    8.4520   -1.6990 hx        1 MOL      0.150937
     38 H18        -0.9300    6.0030   -2.7830 hn        1 MOL      0.306309
     39 H19        -1.4190    7.4430   -3.4440 hn        1 MOL      0.306309
     40 H20        -0.2160    6.6910   -4.0560 hn        1 MOL      0.306309
     41 N4          3.6250    3.7550    2.1920 n         1 MOL     -0.094475
     42 C13         4.4140    3.5520    3.4050 c3        1 MOL     -0.289412
     43 C14         5.6350    2.5900    3.1700 c         1 MOL      0.543668
     44 O6          6.6220    2.7360    3.9020 o         1 MOL     -0.557521
     45 C15         3.5570    2.8630    4.5070 c3        1 MOL     -0.111068
     46 C16         2.7840    1.5900    4.1010 c         1 MOL      0.712787
     47 O7          2.0610    1.0780    5.0190 o         1 MOL     -0.669143
     48 O8          2.7750    1.2390    2.9320 o         1 MOL     -0.669143
     49 H21         2.8430    3.1230    2.0570 hn        1 MOL      0.147848
     50 H22         4.7400    4.5730    3.6340 h1        1 MOL      0.154474
     51 H23         2.8000    3.5780    4.8430 hc        1 MOL      0.055265
     52 H24         4.2080    2.5690    5.3390 hc        1 MOL      0.055265
     53 N5          5.7400    1.8960    2.0480 n         1 MOL      0.032239
     54 C17         6.9730    1.4400    1.3700 c3        1 MOL     -0.290846
     55 C18         7.3540    0.0250    1.7860 c         1 MOL      0.623010
     56 O9          8.2270   -0.2420    2.6560 o         1 MOL     -0.543557
     57 H25         4.8480    1.7600    1.5790 hn        1 MOL     -0.033404
     58 H26         7.8070    2.0400    1.7160 h1        1 MOL      0.115809
     59 H27         6.8160    1.6170    0.3010 h1        1 MOL      0.115809
     60 N6          6.6620   -0.9160    1.1400 n         1 MOL     -0.523662
     61 C19         6.8260   -2.2970    1.4680 c3        1 MOL      0.040188
     62 C20         6.8630   -3.2880    0.3430 c         1 MOL      0.433464
     63 O10         7.0740   -4.4590    0.6640 o         1 MOL     -0.526903
     64 C21         5.7380   -2.7530    2.4950 c3        1 MOL     -0.276562
     65 C22         4.3790   -2.2290    2.1450 c         1 MOL      0.823932
     66 O11         3.9160   -2.4850    1.0190 o         1 MOL     -0.754313
     67 O12         3.6980   -1.5910    2.9860 o         1 MOL     -0.754313
     68 H28         5.9580   -0.6370    0.4680 hn        1 MOL      0.310184
     69 H29         7.8010   -2.3870    1.9570 h1        1 MOL      0.113151
     70 H30         6.0450   -2.3340    3.4530 hc        1 MOL      0.092966
     71 H31         5.6250   -3.8230    2.6850 hc        1 MOL      0.092966
     72 N7          6.5140   -2.7950   -0.8880 n         1 MOL     -0.308910
     73 C23         6.3260   -3.6680   -1.9950 c3        1 MOL     -0.102256
     74 C24         4.9780   -4.3270   -2.0570 c         1 MOL      0.517772
     75 O13         4.8400   -5.2200   -2.8680 o         1 MOL     -0.606224
     76 H32         6.2050   -1.8330   -0.8990 hn        1 MOL      0.251166
     77 H33         7.1330   -4.3820   -2.1590 h1        1 MOL      0.090670
     78 H34         6.3290   -2.9970   -2.8550 h1        1 MOL      0.090670
     79 N8          3.9670   -3.9770   -1.3110 n         1 MOL     -0.077898
     80 C25         2.5440   -4.4090   -1.4070 c3        1 MOL     -0.283567
     81 C26         1.5240   -3.2600   -1.3930 c         1 MOL      0.809646
     82 O14         1.7660   -2.1820   -0.8330 o         1 MOL     -0.680630
     83 C27         2.2590   -5.4920   -0.4060 c3        1 MOL      0.487433
     84 C28         2.9930   -6.7840   -0.7430 c3        1 MOL     -0.299148
     85 O15         2.5320   -5.0790    0.9770 oh        1 MOL     -0.684621
     86 H35         4.0430   -3.1280   -0.7800 hn        1 MOL      0.113027
     87 H36         2.4080   -4.8720   -2.3920 h1        1 MOL      0.096060
     88 H37         1.1890   -5.7160   -0.4640 h1        1 MOL     -0.034675
     89 H38         3.0590   -4.2810    1.0110 ho        1 MOL      0.420652
     90 H39         2.6270   -7.6460   -0.1980 hc        1 MOL      0.081610
     91 H40         2.7700   -7.0230   -1.7800 hc        1 MOL      0.081610
     92 H41         4.0590   -6.5960   -0.5680 hc        1 MOL      0.081610
     93 N9          0.3710   -3.5140   -2.0490 n         1 MOL     -0.738404
     94 C29        -0.7590   -2.5470   -2.1930 c3        1 MOL     -0.021842
     95 C30        -2.0110   -3.1510   -1.5110 c         1 MOL      0.602869
     96 O16        -2.6130   -4.0780   -2.0500 o         1 MOL     -0.555892
     97 C31        -1.0190   -2.2460   -3.6560 c3        1 MOL      0.340168
     98 C32         0.2080   -1.5670   -4.2440 c3        1 MOL      0.038317
     99 C33        -2.2640   -1.4180   -3.9370 c3        1 MOL     -0.583986
    100 C34         0.2420   -1.5310   -5.7670 c3        1 MOL     -0.134684
    101 H42         0.1890   -4.4380   -2.4000 hn        1 MOL      0.344408
    102 H43        -0.5160   -1.6080   -1.7020 h1        1 MOL      0.115589
    103 H44        -1.1790   -3.2130   -4.1400 hc        1 MOL     -0.021491
    104 H45         1.0780   -2.1380   -3.9200 hc        1 MOL      0.021526
    105 H46         0.3420   -0.5650   -3.8450 hc        1 MOL      0.021526
    106 H47        -2.4990   -1.4320   -5.0040 hc        1 MOL      0.131329
    107 H48        -3.1530   -1.8220   -3.4660 hc        1 MOL      0.131329
    108 H49        -2.0260   -0.3870   -3.6600 hc        1 MOL      0.131329
    109 H50        -0.5870   -0.9620   -6.1810 hc        1 MOL      0.027513
    110 H51         1.1510   -1.1020   -6.1950 hc        1 MOL      0.027513
    111 H52         0.1380   -2.5570   -6.1240 hc        1 MOL      0.027513
    112 N10        -2.5260   -2.3660   -0.5700 n         1 MOL     -0.344509
    113 C35        -3.7550   -2.6110    0.1390 c3        1 MOL     -0.081277
    114 C36        -5.0480   -2.0630   -0.4780 c         1 MOL      0.574572
    115 O17        -5.0560   -1.1750   -1.3790 o         1 MOL     -0.500394
    116 C37        -3.7280   -2.1040    1.6300 c3        1 MOL      0.246533
    117 C38        -2.7360   -2.8340    2.4490 c3        1 MOL     -0.653369
    118 O18        -3.3700   -0.7190    1.6130 oh        1 MOL     -0.551185
    119 H53        -2.0530   -1.4950   -0.4350 hn        1 MOL      0.314403
    120 H54        -3.9280   -3.6840    0.0300 h1        1 MOL      0.082344
    121 H55        -4.6890   -2.1920    2.1260 h1        1 MOL      0.050340
    122 H56        -2.4660   -0.6800    1.3080 ho        1 MOL      0.421338
    123 H57        -1.7060   -2.6280    2.1600 hc        1 MOL      0.186083
    124 H58        -2.8110   -2.4210    3.4620 hc        1 MOL      0.186083
    125 H59        -2.8340   -3.9190    2.4970 hc        1 MOL      0.186083
    126 N11        -6.2390   -2.3340    0.1230 n         1 MOL     -0.411407
    127 C39        -7.5090   -1.8630   -0.5010 c3        1 MOL     -0.128682
    128 C40        -7.6660   -0.3210   -0.1960 c         1 MOL      0.289433
    129 O19        -8.3470    0.4220   -0.9620 o         1 MOL     -0.471694
    130 C41        -8.6990   -2.6490    0.1600 c3        1 MOL      0.328196
    131 C42        -8.9980   -3.9970   -0.5730 c3        1 MOL     -0.470582
    132 O20        -8.5020   -2.9450    1.5320 oh        1 MOL     -0.608210
    133 H60        -6.2970   -3.0850    0.8100 hn        1 MOL      0.270894
    134 H61        -7.5650   -1.9990   -1.5770 h1        1 MOL      0.161194
    135 H62        -9.5370   -1.9560    0.1400 h1        1 MOL      0.034807
    136 H63        -9.1630   -2.5160    2.0790 ho        1 MOL      0.361854
    137 H64        -8.0970   -4.6150   -0.5800 hc        1 MOL      0.141553
    138 H65        -9.7550   -4.5420   -0.0170 hc        1 MOL      0.141553
    139 H66        -9.4210   -3.9160   -1.5710 hc        1 MOL      0.141553
    140 N12        -6.9480    0.0220    0.8550 n         1 MOL     -0.166493
    141 C43        -6.8530    1.4360    1.2940 c3        1 MOL     -0.051353
    142 C44        -5.8940    2.1880    0.3940 c         1 MOL      0.322953
    143 O21        -6.1060    3.3650    0.0600 o         1 MOL     -0.519946
    144 C45        -6.4940    1.4330    2.7280 c3        1 MOL      0.069442
    145 C46        -7.6720    0.9540    3.6120 c3        1 MOL      0.135078
    146 C47        -7.3160    1.0470    5.1100 c3        1 MOL     -0.072859
    147 C48        -8.2930    0.3630    6.1000 c3        1 MOL     -0.034491
    148 N13        -8.7690   -0.9310    5.6750 n4        1 MOL     -0.235746
    149 H67        -6.4560   -0.6960    1.3690 hn        1 MOL      0.225134
    150 H68        -7.8110    1.9300    1.1000 h1        1 MOL      0.103800
    151 H69        -6.1120    2.3890    3.0980 hc        1 MOL      0.002340
    152 H70        -5.6900    0.7040    2.8970 hc        1 MOL      0.002340
    153 H71        -7.9160   -0.0770    3.3510 hc        1 MOL     -0.054650
    154 H72        -8.5330    1.6010    3.4670 hc        1 MOL     -0.054650
    155 H73        -7.3170    2.0960    5.4020 hc        1 MOL      0.061528
    156 H74        -6.3080    0.6660    5.2320 hc        1 MOL      0.061528
    157 H75        -9.2110    0.9610    6.1450 hx        1 MOL      0.107224
    158 H76        -7.9350    0.3560    7.1210 hx        1 MOL      0.107224
    159 H77        -9.1320   -0.9410    4.7320 hn        1 MOL      0.260664
    160 H78        -8.0680   -1.6550    5.7070 hn        1 MOL      0.260664
    161 H79        -9.5240   -1.2160    6.2970 hn        1 MOL      0.260664
    162 N14        -4.8630    1.5510   -0.0770 n         1 MOL      0.185443
    163 C49        -3.9180    2.1220   -1.0200 c3        1 MOL     -0.226922
    164 C50        -4.5020    2.1800   -2.4290 c         1 MOL      0.540942
    165 O22        -4.2640    3.2100   -3.0760 o         1 MOL     -0.562706
    166 C51        -2.6190    1.2480   -1.0870 c3        1 MOL     -0.003906
    167 C52        -1.7310    1.6060    0.1020 c3        1 MOL      0.012025
    168 C53        -0.5130    0.6920    0.3010 c         1 MOL      0.746253
    169 O23        -0.7130   -0.5310    0.5440 o         1 MOL     -0.779015
    170 O24         0.6290    1.2510    0.4060 o         1 MOL     -0.779015
    171 H80        -4.7500    0.6500    0.3640 hn        1 MOL     -0.054115
    172 H81        -3.6730    3.1120   -0.6220 h1        1 MOL      0.107367
    173 H82        -2.0660    1.4260   -2.0080 hc        1 MOL      0.021128
    174 H83        -2.8650    0.1880   -1.0140 hc        1 MOL      0.021128
    175 H84        -2.3410    1.4920    0.9940 hc        1 MOL     -0.028790
    176 H85        -1.3490    2.6290    0.0620 hc        1 MOL     -0.028790
    177 N15        -5.4450    1.2900   -2.8370 n         1 MOL     -0.255693
    178 C54        -6.2530    1.5260   -4.0640 c3        1 MOL     -0.380092
    179 H86        -5.6060    1.8990   -4.8580 h1        1 MOL      0.144000
    180 H87        -6.7140    0.5900   -4.3810 h1        1 MOL      0.144000
    181 H88        -7.0300    2.2610   -3.8520 h1        1 MOL      0.144000
    182 H89        -5.6950    0.4950   -2.2690 hn        1 MOL      0.288187
    183 Ca1         1.9470   -0.6500    1.3210 Ca        1 MOL      1.742249
    184 O25         0.8500   -3.0740    2.2560 oh        1 MOL     -0.916300
    185 H90         1.4590   -3.7600    1.9930 ho        1 MOL      0.422319
    186 H91         0.2960   -3.4890    2.9260 ho        1 MOL      0.422319
@<TRIPOS>BOND
     1    1    2 1   
     2    1    4 1   
     3    1    5 1   
     4    1    6 1   
     5    2    3 2   
     6    2    7 1   
     7    7    8 1   
     8    7   15 1   
     9    8    9 1   
    10    8   11 1   
    11    8   16 1   
    12    9   10 2   
    13    9   19 1   
    14   11   12 1   
    15   11   17 1   
    16   11   18 1   
    17   12   13 1   
    18   12   14 1   
    19   19   20 1   
    20   19   28 1   
    21   20   21 1   
    22   20   23 1   
    23   20   29 1   
    24   21   22 2   
    25   21   41 1   
    26   23   24 1   
    27   23   30 1   
    28   23   31 1   
    29   24   25 1   
    30   24   32 1   
    31   24   33 1   
    32   25   26 1   
    33   25   34 1   
    34   25   35 1   
    35   26   27 1   
    36   26   36 1   
    37   26   37 1   
    38   27   38 1   
    39   27   39 1   
    40   27   40 1   
    41   41   42 1   
    42   41   49 1   
    43   42   43 1   
    44   42   45 1   
    45   42   50 1   
    46   43   44 2   
    47   43   53 1   
    48   45   46 1   
    49   45   51 1   
    50   45   52 1   
    51   46   47 1   
    52   46   48 1   
    53   53   54 1   
    54   53   57 1   
    55   54   55 1   
    56   54   58 1   
    57   54   59 1   
    58   55   56 2   
    59   55   60 1   
    60   60   61 1   
    61   60   68 1   
    62   61   62 1   
    63   61   64 1   
    64   61   69 1   
    65   62   63 2   
    66   62   72 1   
    67   64   65 1   
    68   64   70 1   
    69   64   71 1   
    70   65   66 1   
    71   65   67 1   
    72   72   73 1   
    73   72   76 1   
    74   73   74 1   
    75   73   77 1   
    76   73   78 1   
    77   74   75 2   
    78   74   79 1   
    79   79   80 1   
    80   79   86 1   
    81   80   81 1   
    82   80   83 1   
    83   80   87 1   
    84   81   82 2   
    85   81   93 1   
    86   83   84 1   
    87   83   85 1   
    88   83   88 1   
    89   84   90 1   
    90   84   91 1   
    91   84   92 1   
    92   85   89 1   
    93   93   94 1   
    94   93  101 1   
    95   94   95 1   
    96   94   97 1   
    97   94  102 1   
    98   95   96 2   
    99   95  112 1   
   100   97   98 1   
   101   97   99 1   
   102   97  103 1   
   103   98  100 1   
   104   98  104 1   
   105   98  105 1   
   106   99  106 1   
   107   99  107 1   
   108   99  108 1   
   109  100  109 1   
   110  100  110 1   
   111  100  111 1   
   112  112  113 1   
   113  112  119 1   
   114  113  114 1   
   115  113  116 1   
   116  113  120 1   
   117  114  115 2   
   118  114  126 1   
   119  116  117 1   
   120  116  118 1   
   121  116  121 1   
   122  117  123 1   
   123  117  124 1   
   124  117  125 1   
   125  118  122 1   
   126  126  127 1   
   127  126  133 1   
   128  127  128 1   
   129  127  130 1   
   130  127  134 1   
   131  128  129 2   
   132  128  140 1   
   133  130  131 1   
   134  130  132 1   
   135  130  135 1   
   136  131  137 1   
   137  131  138 1   
   138  131  139 1   
   139  132  136 1   
   140  140  141 1   
   141  140  149 1   
   142  141  142 1   
   143  141  144 1   
   144  141  150 1   
   145  142  143 2   
   146  142  162 1   
   147  144  145 1   
   148  144  151 1   
   149  144  152 1   
   150  145  146 1   
   151  145  153 1   
   152  145  154 1   
   153  146  147 1   
   154  146  155 1   
   155  146  156 1   
   156  147  148 1   
   157  147  157 1   
   158  147  158 1   
   159  148  159 1   
   160  148  160 1   
   161  148  161 1   
   162  162  163 1   
   163  162  171 1   
   164  163  164 1   
   165  163  166 1   
   166  163  172 1   
   167  164  165 2   
   168  164  177 1   
   169  166  167 1   
   170  166  173 1   
   171  166  174 1   
   172  167  168 1   
   173  167  175 1   
   174  167  176 1   
   175  168  169 1   
   176  168  170 1   
   177  177  178 1   
   178  177  182 1   
   179  178  179 1   
   180  178  180 1   
   181  178  181 1   
   182  184  185 1   
   183  184  186 1   
@<TRIPOS>SUBSTRUCTURE
     1 MOL         1 TEMP              0 ****  ****    0 ROOT
