@<TRIPOS>MOLECULE
MOL
  182   178     1     0     0
SMALL
resp


@<TRIPOS>ATOM
      1 C1          0.4560   -4.7590    6.0560 c3        1 MOL     -0.315948
      2 C2          0.4620   -4.0920    4.6090 c         1 MOL      0.696840
      3 O1         -0.5300   -4.2120    3.9600 o         1 MOL     -0.562110
      4 H1          1.2350   -5.5190    6.1080 hc        1 MOL      0.083132
      5 H2          0.6450   -3.9940    6.8090 hc        1 MOL      0.083132
      6 H3         -0.5140   -5.2200    6.2400 hc        1 MOL      0.083132
      7 N1          1.4960   -3.3270    4.1810 n         1 MOL     -0.563981
      8 C3          1.7260   -2.8500    2.7990 c3        1 MOL      0.018575
      9 C4          2.5800   -3.7980    1.9410 c         1 MOL      0.592942
     10 O2          3.7490   -4.0590    2.2580 o         1 MOL     -0.552854
     11 C5          2.3330   -1.4200    2.6740 c3        1 MOL     -0.063895
     12 C6          2.2240   -0.8720    1.2530 c         1 MOL      0.706747
     13 O3          1.3690   -1.3130    0.4960 o         1 MOL     -0.715915
     14 O4          2.9740    0.0250    0.8710 o         1 MOL     -0.715915
     15 H4          2.1980   -3.2140    4.9060 hn        1 MOL      0.297124
     16 H5          0.7680   -2.7670    2.2860 h1        1 MOL      0.013429
     17 H6          3.3990   -1.5250    2.8620 hc        1 MOL      0.042686
     18 H7          2.0530   -0.7530    3.4870 hc        1 MOL      0.042686
     19 N2          1.9750   -4.3040    0.8310 n         1 MOL     -0.405601
     20 C7          2.4380   -5.5170    0.1640 c3        1 MOL     -0.052612
     21 C8          3.5720   -5.4050   -0.8470 c         1 MOL      0.455909
     22 O5          3.9180   -6.4970   -1.2360 o         1 MOL     -0.544734
     23 C9          1.1960   -6.3740   -0.2770 c3        1 MOL     -0.068442
     24 C10         0.3570   -5.7520   -1.4850 c3        1 MOL     -0.067297
     25 C11        -0.9670   -6.4640   -1.3830 c3        1 MOL     -0.020298
     26 C12        -1.9810   -5.6070   -2.1720 c3        1 MOL      0.063469
     27 N3         -3.2230   -6.2810   -2.5370 n4        1 MOL     -0.313821
     28 H8          1.1030   -3.8970    0.5170 hn        1 MOL      0.316117
     29 H9          2.8650   -6.1260    0.9530 h1        1 MOL      0.117760
     30 H10         0.5610   -6.5230    0.5980 hc        1 MOL      0.055983
     31 H11         1.4890   -7.3620   -0.6360 hc        1 MOL      0.055983
     32 H12         0.9070   -5.8650   -2.4120 hc        1 MOL      0.040118
     33 H13         0.3160   -4.6950   -1.2110 hc        1 MOL      0.040118
     34 H14        -1.3860   -6.7090   -0.4050 hc        1 MOL      0.042437
     35 H15        -0.9010   -7.4690   -1.7810 hc        1 MOL      0.042437
     36 H16        -1.5870   -5.3400   -3.1620 hx        1 MOL      0.059821
     37 H17        -2.1960   -4.6990   -1.6070 hx        1 MOL      0.059821
     38 H18        -3.8490   -5.6240   -2.9790 hn        1 MOL      0.314232
     39 H19        -3.0650   -7.0250   -3.2050 hn        1 MOL      0.314232
     40 H20        -3.6690   -6.6810   -1.7320 hn        1 MOL      0.314232
     41 N4          4.0410   -4.2380   -1.1600 n         1 MOL     -0.221716
     42 C13         5.3250   -4.0370   -1.8500 c3        1 MOL      0.080354
     43 C14         6.4330   -3.5050   -0.9400 c         1 MOL      0.403815
     44 O6          7.5820   -3.5560   -1.2950 o         1 MOL     -0.513109
     45 C15         5.1500   -3.1060   -3.0400 c3        1 MOL     -0.245031
     46 C16         4.3460   -1.8230   -2.5830 c         1 MOL      0.708364
     47 O7          3.6590   -1.1190   -3.4200 o         1 MOL     -0.745327
     48 O8          4.1430   -1.4700   -1.3970 o         1 MOL     -0.745327
     49 H21         3.5770   -3.3970   -0.8530 hn        1 MOL      0.151298
     50 H22         5.6620   -5.0070   -2.2310 h1        1 MOL      0.091736
     51 H23         4.5910   -3.6160   -3.8260 hc        1 MOL      0.086744
     52 H24         6.1650   -2.8180   -3.3060 hc        1 MOL      0.086744
     53 N5          6.0940   -3.1160    0.2590 n         1 MOL     -0.232113
     54 C17         6.9750   -2.3860    1.1640 c3        1 MOL     -0.161454
     55 C18         7.2450   -0.9780    0.7710 c         1 MOL      0.443562
     56 O9          8.2430   -0.4030    1.2210 o         1 MOL     -0.551655
     57 H25         5.0950   -3.1980    0.3660 hn        1 MOL      0.177955
     58 H26         7.9200   -2.9190    1.2690 h1        1 MOL      0.126202
     59 H27         6.4560   -2.4020    2.1190 h1        1 MOL      0.126202
     60 N6          6.5220   -0.3720   -0.1460 n         1 MOL     -0.218834
     61 C19         6.6600    1.0260   -0.5100 c3        1 MOL     -0.010482
     62 C20         6.2040    2.0790    0.4390 c         1 MOL      0.284074
     63 O10         6.6330    3.2270    0.3880 o         1 MOL     -0.451392
     64 C21         6.2190    1.2290   -1.9230 c3        1 MOL     -0.238612
     65 C22         5.0540    2.1060   -2.0390 c         1 MOL      0.554955
     66 N7          5.1560    3.3000   -2.4870 n         1 MOL     -0.568167
     67 O11         3.9180    1.7520   -1.6170 o         1 MOL     -0.608998
     68 H28         5.7360   -0.8870   -0.5200 hn        1 MOL      0.290344
     69 H29         7.7350    1.1760   -0.5710 h1        1 MOL      0.141295
     70 H30         6.0590    0.3360   -2.5310 hc        1 MOL      0.089735
     71 H31         7.0610    1.8160   -2.3100 hc        1 MOL      0.089735
     72 H32         5.9840    3.5660   -3.0000 hn        1 MOL      0.318818
     73 H33         4.3230    3.8630   -2.5380 hn        1 MOL      0.318818
     74 N8          5.3060    1.7640    1.3880 n         1 MOL      0.018123
     75 C23         5.0560    2.6310    2.5110 c3        1 MOL     -0.326963
     76 C24         3.7980    3.4630    2.2950 c         1 MOL      0.593620
     77 O12         3.5610    4.4060    3.0290 o         1 MOL     -0.554383
     78 H34         4.7080    0.9630    1.3310 hn        1 MOL      0.087051
     79 H35         5.9370    3.2580    2.6650 h1        1 MOL      0.135691
     80 H36         4.8380    2.0190    3.3840 h1        1 MOL      0.135691
     81 N9          2.9980    3.1200    1.2760 n         1 MOL     -0.231884
     82 C25         1.7170    3.8360    1.1090 c3        1 MOL      0.124244
     83 C26         0.5930    2.7520    0.7890 c         1 MOL      0.299788
     84 O13         0.8850    1.8300    0.0510 o         1 MOL     -0.601077
     85 C27         1.7530    4.8120   -0.1100 c3        1 MOL      0.232764
     86 C28         2.6940    6.0130   -0.1260 ca        1 MOL     -0.031052
     87 C29         4.0470    5.7130   -0.2940 ca        1 MOL     -0.159720
     88 C30         2.2260    7.3260   -0.1230 ca        1 MOL     -0.159720
     89 C31         4.9400    6.8140   -0.2960 ca        1 MOL     -0.285985
     90 C32         3.1140    8.4340   -0.2340 ca        1 MOL     -0.285985
     91 C33         4.5140    8.1700   -0.2200 ca        1 MOL      0.387611
     92 O14         5.3970    9.1670   -0.1470 oh        1 MOL     -0.474861
     93 H37         3.1770    2.3100    0.7040 hn        1 MOL      0.154506
     94 H38         1.5570    4.4240    2.0150 h1        1 MOL      0.017117
     95 H39         0.7490    5.2150   -0.2600 hc        1 MOL     -0.053415
     96 H40         1.9960    4.3150   -1.0510 hc        1 MOL     -0.053415
     97 H41         4.4060    4.6960   -0.3260 ha        1 MOL      0.124208
     98 H42         1.1890    7.5490    0.0510 ha        1 MOL      0.124208
     99 H43         5.9630    6.4990   -0.4070 ha        1 MOL      0.145838
    100 H44         2.6720    9.4130   -0.2480 ha        1 MOL      0.145838
    101 H45         4.9620   10.0100   -0.2760 ho        1 MOL      0.355761
    102 N10        -0.6280    2.9410    1.1810 n         1 MOL     -0.178315
    103 C34        -1.7540    2.1650    0.7190 c3        1 MOL     -0.317192
    104 C35        -2.9940    2.9830    0.4570 c         1 MOL      0.565907
    105 O15        -3.3590    3.8920    1.2230 o         1 MOL     -0.511752
    106 C36        -2.2400    1.1130    1.7930 c3        1 MOL      0.187780
    107 C37        -2.3800    1.6410    3.2710 c3        1 MOL      0.036577
    108 C38        -1.2180   -0.0610    1.8650 c3        1 MOL     -0.351305
    109 C39        -3.0160    0.6560    4.2760 c3        1 MOL     -0.297913
    110 H46        -0.7760    3.7070    1.8250 hn        1 MOL      0.215351
    111 H47        -1.4160    1.6960   -0.2070 h1        1 MOL      0.227160
    112 H48        -3.1760    0.6690    1.4470 hc        1 MOL     -0.058529
    113 H49        -2.9340    2.5810    3.3030 hc        1 MOL      0.017225
    114 H50        -1.3590    1.7270    3.6500 hc        1 MOL      0.017225
    115 H51        -0.8560   -0.2660    0.8620 hc        1 MOL      0.121305
    116 H52        -0.3780    0.2840    2.4780 hc        1 MOL      0.121305
    117 H53        -1.6620   -0.9990    2.2180 hc        1 MOL      0.121305
    118 H54        -3.8330    0.0930    3.8220 hc        1 MOL      0.079070
    119 H55        -2.1560    0.0300    4.5400 hc        1 MOL      0.079070
    120 H56        -3.3800    1.2590    5.1100 hc        1 MOL      0.079070
    121 N11        -3.7170    2.7610   -0.6490 n         1 MOL     -0.391833
    122 C40        -5.0620    3.1650   -0.9600 c3        1 MOL     -0.080632
    123 C41        -6.3090    2.5940   -0.2520 c         1 MOL      0.468525
    124 O16        -6.2380    1.7020    0.5740 o         1 MOL     -0.317762
    125 C42        -5.2400    2.7890   -2.4690 c3        1 MOL      0.074601
    126 O17        -5.3150    1.3630   -2.5840 oh        1 MOL     -0.623515
    127 H57        -3.3290    2.0060   -1.1900 hn        1 MOL      0.230949
    128 H58        -5.0450    4.2580   -0.9280 h1        1 MOL      0.082979
    129 H59        -4.4090    3.1990   -3.0490 h1        1 MOL      0.061579
    130 H60        -6.1270    3.2830   -2.8500 h1        1 MOL      0.061579
    131 H61        -4.4760    0.9130   -2.4960 ho        1 MOL      0.438963
    132 N12        -7.4370    3.2180   -0.5170 n         1 MOL     -0.442106
    133 C43        -8.6580    2.9450    0.1310 c3        1 MOL      0.154492
    134 C44        -9.1330    1.5400   -0.1810 c         1 MOL      0.557374
    135 O18        -9.5160    0.8370    0.7350 o         1 MOL     -0.553488
    136 C45        -9.7350    3.9350   -0.2860 c3        1 MOL     -0.240017
    137 H62        -7.4370    3.7690   -1.3640 hn        1 MOL      0.277113
    138 H63        -8.5380    3.0250    1.2080 h1        1 MOL      0.080042
    139 H64       -10.6160    3.7570    0.3340 hc        1 MOL      0.071404
    140 H65        -9.3540    4.9480   -0.1560 hc        1 MOL      0.071404
    141 H66       -10.0110    3.7810   -1.3300 hc        1 MOL      0.071404
    142 N13        -9.0200    1.0000   -1.3930 n         1 MOL     -0.509024
    143 C46        -9.1880   -0.4550   -1.6840 c3        1 MOL      0.066291
    144 C47        -8.2380   -1.4070   -0.8950 c         1 MOL      0.450181
    145 O19        -8.5950   -2.5860   -0.8380 o         1 MOL     -0.553448
    146 C48        -9.0490   -0.7700   -3.2240 c3        1 MOL     -0.277650
    147 H67        -8.6570    1.5650   -2.1480 hn        1 MOL      0.315070
    148 H68       -10.1470   -0.8210   -1.3310 h1        1 MOL      0.108342
    149 H69        -8.0500   -0.4940   -3.5380 hc        1 MOL      0.083194
    150 H70        -9.1750   -1.8470   -3.3560 hc        1 MOL      0.083194
    151 H71        -9.7810   -0.2530   -3.8500 hc        1 MOL      0.083194
    152 N14        -7.1520   -0.9650   -0.2950 n         1 MOL     -0.040634
    153 C49        -6.1990   -1.8460    0.3810 c3        1 MOL     -0.121748
    154 C50        -6.4300   -1.7860    1.8850 c         1 MOL      0.363227
    155 O20        -6.4370   -2.8260    2.6440 o         1 MOL     -0.545886
    156 C51        -4.7790   -1.3940   -0.0060 c3        1 MOL      0.250186
    157 C52        -4.2560   -1.9650   -1.3460 c3        1 MOL     -0.485899
    158 C53        -3.0450   -1.1800   -1.8850 c         1 MOL      0.875733
    159 O21        -3.0950    0.0290   -2.0860 o         1 MOL     -0.733216
    160 O22        -2.0220   -1.8120   -2.1580 o         1 MOL     -0.733216
    161 H72        -6.8380   -0.0280   -0.4970 hn        1 MOL      0.093414
    162 H73        -6.3670   -2.8720    0.0600 h1        1 MOL      0.086503
    163 H74        -4.1070   -1.6350    0.8160 hc        1 MOL     -0.010219
    164 H75        -4.8330   -0.3070   -0.0850 hc        1 MOL     -0.010219
    165 H76        -5.1370   -1.8170   -1.9610 hc        1 MOL      0.091090
    166 H77        -4.0650   -3.0360   -1.3030 hc        1 MOL      0.091090
    167 N15        -6.6830   -0.5840    2.3980 n         1 MOL      0.016786
    168 C54        -6.9600   -0.2300    3.7680 c3        1 MOL     -0.236504
    169 H78        -7.9300    0.2640    3.8270 h1        1 MOL      0.097056
    170 H79        -6.9730   -1.1310    4.3810 h1        1 MOL      0.097056
    171 H80        -6.1860    0.4470    4.1330 h1        1 MOL      0.097056
    172 H81        -6.7780    0.1850    1.7590 hn        1 MOL      0.034910
    173 Ca1         2.0290   -0.0030   -1.5510 Ca        1 MOL      1.809352
    174 O23        -0.3880    0.7340   -2.6000 oh        1 MOL     -0.839859
    175 H82        -0.7820    1.6110   -2.6650 ho        1 MOL      0.411019
    176 H83        -1.1100    0.1700   -2.3360 ho        1 MOL      0.411019
    177 O24         0.8140   -2.3210   -2.5610 oh        1 MOL     -0.839859
    178 H84        -0.1430   -2.3270   -2.6440 ho        1 MOL      0.411019
    179 H85         1.1030   -3.1020   -3.0290 ho        1 MOL      0.411019
    180 O25         2.0940    1.3800   -3.8070 oh        1 MOL     -0.839859
    181 H86         1.8780    2.2370   -4.1850 ho        1 MOL      0.411019
    182 H87         2.7630    1.0160   -4.3780 ho        1 MOL      0.411019
@<TRIPOS>BOND
     1    1    2 1   
     2    1    4 1   
     3    1    5 1   
     4    1    6 1   
     5    2    3 2   
     6    2    7 1   
     7    7    8 1   
     8    7   15 1   
     9    8    9 1   
    10    8   11 1   
    11    8   16 1   
    12    9   10 2   
    13    9   19 1   
    14   11   12 1   
    15   11   17 1   
    16   11   18 1   
    17   12   13 1   
    18   12   14 1   
    19   19   20 1   
    20   19   28 1   
    21   20   21 1   
    22   20   23 1   
    23   20   29 1   
    24   21   22 2   
    25   21   41 1   
    26   23   24 1   
    27   23   30 1   
    28   23   31 1   
    29   24   25 1   
    30   24   32 1   
    31   24   33 1   
    32   25   26 1   
    33   25   34 1   
    34   25   35 1   
    35   26   27 1   
    36   26   36 1   
    37   26   37 1   
    38   27   38 1   
    39   27   39 1   
    40   27   40 1   
    41   41   42 1   
    42   41   49 1   
    43   42   43 1   
    44   42   45 1   
    45   42   50 1   
    46   43   44 2   
    47   43   53 1   
    48   45   46 1   
    49   45   51 1   
    50   45   52 1   
    51   46   47 1   
    52   46   48 1   
    53   53   54 1   
    54   53   57 1   
    55   54   55 1   
    56   54   58 1   
    57   54   59 1   
    58   55   56 2   
    59   55   60 1   
    60   60   61 1   
    61   60   68 1   
    62   61   62 1   
    63   61   64 1   
    64   61   69 1   
    65   62   63 2   
    66   62   74 1   
    67   64   65 1   
    68   64   70 1   
    69   64   71 1   
    70   65   66 1   
    71   65   67 2   
    72   66   72 1   
    73   66   73 1   
    74   74   75 1   
    75   74   78 1   
    76   75   76 1   
    77   75   79 1   
    78   75   80 1   
    79   76   77 2   
    80   76   81 1   
    81   81   82 1   
    82   81   93 1   
    83   82   83 1   
    84   82   85 1   
    85   82   94 1   
    86   83   84 2   
    87   83  102 1   
    88   85   86 1   
    89   85   95 1   
    90   85   96 1   
    91   86   87 ar  
    92   86   88 ar  
    93   87   89 ar  
    94   87   97 1   
    95   88   90 ar  
    96   88   98 1   
    97   89   91 ar  
    98   89   99 1   
    99   90   91 ar  
   100   90  100 1   
   101   91   92 1   
   102   92  101 1   
   103  102  103 1   
   104  102  110 1   
   105  103  104 1   
   106  103  106 1   
   107  103  111 1   
   108  104  105 2   
   109  104  121 1   
   110  106  107 1   
   111  106  108 1   
   112  106  112 1   
   113  107  109 1   
   114  107  113 1   
   115  107  114 1   
   116  108  115 1   
   117  108  116 1   
   118  108  117 1   
   119  109  118 1   
   120  109  119 1   
   121  109  120 1   
   122  121  122 1   
   123  121  127 1   
   124  122  123 1   
   125  122  125 1   
   126  122  128 1   
   127  123  124 2   
   128  123  132 1   
   129  125  126 1   
   130  125  129 1   
   131  125  130 1   
   132  126  131 1   
   133  132  133 1   
   134  132  137 1   
   135  133  134 1   
   136  133  136 1   
   137  133  138 1   
   138  134  135 2   
   139  134  142 1   
   140  136  139 1   
   141  136  140 1   
   142  136  141 1   
   143  142  143 1   
   144  142  147 1   
   145  143  144 1   
   146  143  146 1   
   147  143  148 1   
   148  144  145 2   
   149  144  152 1   
   150  146  149 1   
   151  146  150 1   
   152  146  151 1   
   153  152  153 1   
   154  152  161 1   
   155  153  154 1   
   156  153  156 1   
   157  153  162 1   
   158  154  155 2   
   159  154  167 1   
   160  156  157 1   
   161  156  163 1   
   162  156  164 1   
   163  157  158 1   
   164  157  165 1   
   165  157  166 1   
   166  158  159 1   
   167  158  160 1   
   168  167  168 1   
   169  167  172 1   
   170  168  169 1   
   171  168  170 1   
   172  168  171 1   
   173  174  175 1   
   174  174  176 1   
   175  177  178 1   
   176  177  179 1   
   177  180  181 1   
   178  180  182 1   
@<TRIPOS>SUBSTRUCTURE
     1 MOL         1 TEMP              0 ****  ****    0 ROOT
