@<TRIPOS>MOLECULE
MOL
  186   183     1     0     0
SMALL
resp


@<TRIPOS>ATOM
      1 C1         -0.6980    2.9510    5.9100 c3        1 MOL     -0.305884
      2 C2         -1.0400    2.5980    4.4490 c         1 MOL      0.728249
      3 O1         -0.2570    2.7710    3.5160 o         1 MOL     -0.576836
      4 H1         -1.6100    3.2300    6.4380 hc        1 MOL      0.074614
      5 H2         -0.2470    2.0870    6.3960 hc        1 MOL      0.074614
      6 H3          0.0020    3.7860    5.9280 hc        1 MOL      0.074614
      7 N1         -2.2170    2.0640    4.1550 n         1 MOL     -0.642326
      8 C3         -2.7390    1.7680    2.8130 c3        1 MOL      0.232395
      9 C4         -3.2770    3.1530    2.1830 c         1 MOL      0.490051
     10 O2         -4.2240    3.7930    2.6690 o         1 MOL     -0.608388
     11 C5         -3.8450    0.7050    2.9480 c3        1 MOL     -0.327024
     12 C6         -4.6420    0.5390    1.6150 c         1 MOL      0.753360
     13 O3         -5.7450    0.1120    1.6350 o         1 MOL     -0.652939
     14 O4         -4.1000    0.8220    0.5440 o         1 MOL     -0.652939
     15 H4         -2.9130    1.9600    4.8890 hn        1 MOL      0.319251
     16 H5         -1.9850    1.3220    2.1610 h1        1 MOL      0.028559
     17 H6         -4.4840    1.0320    3.7700 hc        1 MOL      0.057570
     18 H7         -3.4780   -0.2950    3.1940 hc        1 MOL      0.057570
     19 N2         -2.7320    3.5250    1.0390 n         1 MOL     -0.122669
     20 C7         -2.9490    4.8410    0.3720 c3        1 MOL      0.245473
     21 C8         -4.0990    4.8200   -0.6170 c         1 MOL      0.523739
     22 O5         -4.4750    5.8840   -1.1410 o         1 MOL     -0.584074
     23 C9         -1.6660    5.5080   -0.1640 c3        1 MOL      0.086250
     24 C10        -0.3750    5.3060    0.7700 c3        1 MOL     -0.157241
     25 C11        -1.9520    6.9390   -0.4090 c3        1 MOL     -0.128393
     26 C12        -0.6250    6.0580    2.1140 c3        1 MOL     -0.194464
     27 H8         -2.0380    2.8660    0.7200 hn        1 MOL      0.020132
     28 H9         -3.4390    5.5260    1.0610 h1        1 MOL      0.012404
     29 H10        -1.4910    5.0880   -1.1570 hc        1 MOL      0.018532
     30 H11         0.5170    5.7160    0.2960 hc        1 MOL      0.088372
     31 H12        -0.2400    4.2390    0.9740 hc        1 MOL      0.088372
     32 H13        -1.0230    7.4530   -0.6410 hc        1 MOL      0.014957
     33 H14        -2.5140    7.0790   -1.3230 hc        1 MOL      0.014957
     34 H15        -2.5110    7.4800    0.3580 hc        1 MOL      0.014957
     35 H16        -1.6460    5.9990    2.5030 hc        1 MOL      0.034572
     36 H17         0.1120    5.7930    2.8650 hc        1 MOL      0.034572
     37 H18        -0.3670    7.1050    1.9200 hc        1 MOL      0.034572
     38 N3         -4.7040    3.6990   -0.9300 n         1 MOL     -0.533677
     39 C13        -5.6560    3.4780   -2.0320 c3        1 MOL      0.134790
     40 C14        -6.6730    2.3120   -1.8880 c         1 MOL      0.356448
     41 O6         -7.2320    1.8600   -2.9050 o         1 MOL     -0.491372
     42 C15        -4.8720    3.3790   -3.3660 c3        1 MOL     -0.302559
     43 C16        -4.0130    2.1100   -3.4570 c         1 MOL      0.829670
     44 O7         -3.6120    1.8340   -4.6190 o         1 MOL     -0.723383
     45 O8         -3.7770    1.3750   -2.4650 o         1 MOL     -0.723383
     46 H19        -4.3110    2.8450   -0.5550 hn        1 MOL      0.193622
     47 H20        -6.1940    4.4260   -2.0830 h1        1 MOL      0.066629
     48 H21        -4.2110    4.2380   -3.4130 hc        1 MOL      0.083105
     49 H22        -5.5390    3.4750   -4.2360 hc        1 MOL      0.083105
     50 N4         -6.8710    1.8870   -0.6390 n         1 MOL     -0.272969
     51 C17        -8.1080    1.1950   -0.1920 c3        1 MOL     -0.103381
     52 C18        -8.2120   -0.1920   -0.8560 c         1 MOL      0.458194
     53 O9         -9.3550   -0.6900   -0.9440 o         1 MOL     -0.591187
     54 H23        -6.2630    2.3180    0.0470 hn        1 MOL      0.256339
     55 H24        -8.9450    1.8770   -0.3350 h1        1 MOL      0.088106
     56 H25        -8.0330    1.0780    0.8980 h1        1 MOL      0.088106
     57 N5         -7.0960   -0.8650   -1.1120 n         1 MOL     -0.243304
     58 C19        -7.0340   -2.3190   -1.2840 c3        1 MOL      0.039352
     59 C20        -6.9100   -3.1550    0.0150 c         1 MOL      0.362749
     60 O10        -6.9450   -4.3930   -0.0560 o         1 MOL     -0.538830
     61 C21        -6.0800   -2.7990   -2.3230 c3        1 MOL     -0.282738
     62 C22        -4.7330   -2.1080   -2.1940 c         1 MOL      0.752660
     63 O11        -4.3420   -1.8040   -1.0770 o         1 MOL     -0.741019
     64 O12        -3.9710   -1.9910   -3.1660 o         1 MOL     -0.741019
     65 H26        -6.2290   -0.3950   -0.9130 hn        1 MOL      0.290572
     66 H27        -8.0190   -2.6550   -1.5980 h1        1 MOL      0.091449
     67 H28        -6.4760   -2.4200   -3.2640 hc        1 MOL      0.081553
     68 H29        -6.0400   -3.8890   -2.3860 hc        1 MOL      0.081553
     69 N6         -6.7230   -2.5420    1.1760 n         1 MOL     -0.101939
     70 C23        -6.5400   -3.2430    2.4450 c3        1 MOL     -0.255148
     71 C24        -5.2120   -3.9810    2.6600 c         1 MOL      0.646060
     72 O13        -5.0860   -4.7870    3.5650 o         1 MOL     -0.580048
     73 H30        -6.5520   -1.5550    1.0610 hn        1 MOL      0.148552
     74 H31        -7.3910   -3.9040    2.5670 h1        1 MOL      0.098069
     75 H32        -6.5600   -2.4480    3.1830 h1        1 MOL      0.098069
     76 N7         -4.2410   -3.5860    1.7980 n         1 MOL     -0.380541
     77 C25        -2.8880   -4.1020    1.7300 c3        1 MOL      0.222378
     78 C26        -1.8710   -2.9680    1.5520 c         1 MOL      0.496010
     79 O14        -2.1840   -1.9450    0.9200 o         1 MOL     -0.628654
     80 C27        -2.6850   -5.2580    0.7120 c3        1 MOL     -0.412423
     81 C28        -2.9890   -4.8790   -0.7750 c3        1 MOL     -0.018272
     82 C29        -2.6960   -5.9840   -1.7420 c         1 MOL      0.664667
     83 N8         -2.4910   -5.6550   -2.9670 n         1 MOL     -0.795754
     84 O15        -2.6330   -7.1580   -1.4140 o         1 MOL     -0.621089
     85 H33        -4.4680   -3.0050    1.0030 hn        1 MOL      0.268350
     86 H34        -2.7700   -4.5320    2.7270 h1        1 MOL     -0.013089
     87 H35        -3.3700   -6.0370    1.0490 hc        1 MOL      0.123922
     88 H36        -1.6520   -5.5970    0.7330 hc        1 MOL      0.123922
     89 H37        -2.5100   -3.9590   -1.1200 hc        1 MOL      0.070156
     90 H38        -4.0630   -4.7190   -0.7990 hc        1 MOL      0.070156
     91 H39        -2.5060   -4.6730   -3.2080 hn        1 MOL      0.358632
     92 H40        -2.3770   -6.4080   -3.6350 hn        1 MOL      0.358632
     93 N9         -0.6880   -3.1330    2.1300 n         1 MOL     -0.348535
     94 C30         0.3320   -2.0170    2.2020 c3        1 MOL      0.104209
     95 C31         1.5370   -2.5360    1.4860 c         1 MOL      0.311815
     96 O16         2.0280   -3.6020    1.9470 o         1 MOL     -0.542187
     97 C32         0.6680   -1.6730    3.6640 c3        1 MOL      0.382752
     98 C33         1.5450   -0.4190    3.6210 c3        1 MOL     -0.501211
     99 C34        -0.5890   -1.4030    4.4640 c3        1 MOL     -0.501211
    100 H41        -0.4950   -4.0310    2.5490 hn        1 MOL      0.252212
    101 H42        -0.0870   -1.1370    1.7080 h1        1 MOL      0.041740
    102 H43         1.0580   -2.5760    4.1360 hc        1 MOL     -0.052714
    103 H44         1.8200   -0.1120    4.6360 hc        1 MOL      0.113540
    104 H45         2.4120   -0.6190    2.9890 hc        1 MOL      0.113540
    105 H46         1.0400    0.4550    3.2320 hc        1 MOL      0.113540
    106 H47        -0.2360   -1.1840    5.4720 hc        1 MOL      0.113540
    107 H48        -1.1750   -0.5990    4.0190 hc        1 MOL      0.113540
    108 H49        -1.3070   -2.2240    4.4180 hc        1 MOL      0.113540
    109 N10         1.8590   -1.9970    0.2880 n         1 MOL     -0.156989
    110 C35         3.0480   -2.4550   -0.4720 c3        1 MOL     -0.003201
    111 C36         4.3520   -2.0640    0.2950 c         1 MOL      0.309844
    112 O17         4.4440   -1.2660    1.2580 o         1 MOL     -0.274860
    113 C37         2.9840   -1.8080   -1.9070 c3        1 MOL     -0.334130
    114 C38         4.0550   -2.3090   -2.8140 c         1 MOL      0.673849
    115 N11         3.9800   -3.5280   -3.2940 n         1 MOL     -0.741086
    116 O18         5.0820   -1.6770   -3.1050 o         1 MOL     -0.542453
    117 H50         1.2890   -1.2040    0.0540 hn        1 MOL      0.159382
    118 H51         2.9000   -3.5280   -0.6130 h1        1 MOL      0.079409
    119 H52         3.1270   -0.7310   -1.8620 hc        1 MOL      0.143265
    120 H53         2.0070   -1.9960   -2.3470 hc        1 MOL      0.143265
    121 H54         3.2880   -4.1790   -2.9460 hn        1 MOL      0.344763
    122 H55         4.8310   -3.8520   -3.7180 hn        1 MOL      0.344763
    123 N12         5.4810   -2.5490   -0.2190 n         1 MOL     -0.415278
    124 C39         6.8470   -2.0230    0.1440 c3        1 MOL      0.186792
    125 C40         6.8510   -0.5060    0.1360 c         1 MOL      0.604995
    126 O19         7.3170    0.1350    1.0860 o         1 MOL     -0.529987
    127 C41         7.9960   -2.7100   -0.6220 c3        1 MOL     -0.105803
    128 C42         9.3770   -2.1950   -0.2120 ca        1 MOL     -0.015649
    129 C43         9.9560   -2.5760    1.0200 ca        1 MOL     -0.159098
    130 C44        10.0590   -1.3350   -1.1130 ca        1 MOL     -0.159098
    131 C45        11.1830   -2.0480    1.4230 ca        1 MOL     -0.254987
    132 C46        11.2680   -0.8730   -0.7280 ca        1 MOL     -0.254987
    133 C47        11.8100   -1.1360    0.5500 ca        1 MOL      0.389621
    134 O20        13.0680   -0.6130    0.7520 oh        1 MOL     -0.549031
    135 H56         5.3960   -3.1800   -1.0100 hn        1 MOL      0.215210
    136 H57         6.9730   -2.2500    1.2040 h1        1 MOL      0.015289
    137 H58         7.8650   -2.4910   -1.6810 hc        1 MOL      0.048558
    138 H59         7.8740   -3.7810   -0.4690 hc        1 MOL      0.048558
    139 H60         9.3530   -3.1630    1.6940 ha        1 MOL      0.147515
    140 H61         9.6640   -1.0340   -2.0700 ha        1 MOL      0.147515
    141 H62        11.6460   -2.3920    2.3360 ha        1 MOL      0.144241
    142 H63        11.8080   -0.2370   -1.4140 ha        1 MOL      0.144241
    143 H64        13.3580   -0.0550    0.0310 ho        1 MOL      0.373734
    144 N13         6.5380    0.1590   -1.0670 n         1 MOL     -0.342618
    145 C48         6.8290    1.5540   -1.1780 c3        1 MOL     -0.069434
    146 C49         5.8580    2.4110   -0.3380 c         1 MOL      0.344835
    147 O21         6.1260    3.5480   -0.0490 o         1 MOL     -0.503143
    148 C50         6.8390    1.9960   -2.6700 c3        1 MOL      0.117421
    149 C51         5.4540    2.2530   -3.3060 c3        1 MOL     -0.172849
    150 C52         5.5060    2.6760   -4.7640 c         1 MOL      0.707918
    151 O22         5.8690    3.8260   -5.0650 o         1 MOL     -0.744866
    152 O23         5.2150    1.8080   -5.6410 o         1 MOL     -0.744866
    153 H65         6.3460   -0.4210   -1.8830 hn        1 MOL      0.257007
    154 H66         7.8640    1.7200   -0.8860 h1        1 MOL      0.079786
    155 H67         7.3440    1.1830   -3.1880 hc        1 MOL     -0.017170
    156 H68         7.5500    2.8040   -2.8080 hc        1 MOL     -0.017170
    157 H69         4.9020    2.9690   -2.7070 hc        1 MOL      0.010184
    158 H70         4.8390    1.3690   -3.1830 hc        1 MOL      0.010184
    159 N14         4.7420    1.8190    0.2040 n         1 MOL     -0.042159
    160 C53         3.8740    2.4450    1.1690 c3        1 MOL     -0.071347
    161 C54         4.4620    2.2340    2.5940 c         1 MOL      0.438968
    162 O24         4.1360    3.0270    3.4250 o         1 MOL     -0.575271
    163 C55         2.4240    1.9670    0.8910 c3        1 MOL      0.046497
    164 C56         1.7960    2.0610   -0.5230 c3        1 MOL     -0.131146
    165 C57         0.3800    1.4660   -0.5820 c         1 MOL      0.726730
    166 O25        -0.7080    2.1160   -0.6690 o         1 MOL     -0.686484
    167 O26         0.1750    0.2170   -0.5450 o         1 MOL     -0.686484
    168 H71         4.5590    0.8820   -0.1340 hn        1 MOL      0.132900
    169 H72         3.9770    3.5280    1.0690 h1        1 MOL      0.092237
    170 H73         1.7650    2.4090    1.6310 hc        1 MOL      0.059202
    171 H74         2.3620    0.8780    0.9180 hc        1 MOL      0.059202
    172 H75         2.4520    1.4750   -1.1610 hc        1 MOL      0.003102
    173 H76         1.7380    3.1210   -0.8050 hc        1 MOL      0.003102
    174 N15         5.0940    1.1210    2.8680 n         1 MOL      0.081609
    175 C58         5.7670    0.8210    4.1400 c3        1 MOL     -0.334614
    176 H77         6.8300    1.0420    4.0480 h1        1 MOL      0.108635
    177 H78         5.3360    1.4320    4.9330 h1        1 MOL      0.108635
    178 H79         5.6350   -0.2330    4.3810 h1        1 MOL      0.108635
    179 H80         5.1990    0.5530    2.0400 hn        1 MOL     -0.103377
    180 Ca1        -2.3400   -0.1650   -1.1050 Ca        1 MOL      1.705324
    181 O27        -1.3850   -2.0550   -2.5600 oh        1 MOL     -0.854705
    182 H81        -2.1850   -2.2460   -3.0470 ho        1 MOL      0.398671
    183 H82        -0.8330   -1.5700   -3.1840 ho        1 MOL      0.398671
    184 O28        -1.0680    0.5810   -3.5730 oh        1 MOL     -0.854705
    185 H83        -0.6560    0.1060   -4.3030 ho        1 MOL      0.398671
    186 H84        -1.5460    1.2980   -3.9950 ho        1 MOL      0.398671
@<TRIPOS>BOND
     1    1    2 1   
     2    1    4 1   
     3    1    5 1   
     4    1    6 1   
     5    2    3 2   
     6    2    7 1   
     7    7    8 1   
     8    7   15 1   
     9    8    9 1   
    10    8   11 1   
    11    8   16 1   
    12    9   10 2   
    13    9   19 1   
    14   11   12 1   
    15   11   17 1   
    16   11   18 1   
    17   12   13 1   
    18   12   14 1   
    19   19   20 1   
    20   19   27 1   
    21   20   21 1   
    22   20   23 1   
    23   20   28 1   
    24   21   22 2   
    25   21   38 1   
    26   23   24 1   
    27   23   25 1   
    28   23   29 1   
    29   24   26 1   
    30   24   30 1   
    31   24   31 1   
    32   25   32 1   
    33   25   33 1   
    34   25   34 1   
    35   26   35 1   
    36   26   36 1   
    37   26   37 1   
    38   38   39 1   
    39   38   46 1   
    40   39   40 1   
    41   39   42 1   
    42   39   47 1   
    43   40   41 2   
    44   40   50 1   
    45   42   43 1   
    46   42   48 1   
    47   42   49 1   
    48   43   44 1   
    49   43   45 1   
    50   50   51 1   
    51   50   54 1   
    52   51   52 1   
    53   51   55 1   
    54   51   56 1   
    55   52   53 2   
    56   52   57 1   
    57   57   58 1   
    58   57   65 1   
    59   58   59 1   
    60   58   61 1   
    61   58   66 1   
    62   59   60 2   
    63   59   69 1   
    64   61   62 1   
    65   61   67 1   
    66   61   68 1   
    67   62   63 1   
    68   62   64 1   
    69   69   70 1   
    70   69   73 1   
    71   70   71 1   
    72   70   74 1   
    73   70   75 1   
    74   71   72 2   
    75   71   76 1   
    76   76   77 1   
    77   76   85 1   
    78   77   78 1   
    79   77   80 1   
    80   77   86 1   
    81   78   79 2   
    82   78   93 1   
    83   80   81 1   
    84   80   87 1   
    85   80   88 1   
    86   81   82 1   
    87   81   89 1   
    88   81   90 1   
    89   82   83 1   
    90   82   84 2   
    91   83   91 1   
    92   83   92 1   
    93   93   94 1   
    94   93  100 1   
    95   94   95 1   
    96   94   97 1   
    97   94  101 1   
    98   95   96 2   
    99   95  109 1   
   100   97   98 1   
   101   97   99 1   
   102   97  102 1   
   103   98  103 1   
   104   98  104 1   
   105   98  105 1   
   106   99  106 1   
   107   99  107 1   
   108   99  108 1   
   109  109  110 1   
   110  109  117 1   
   111  110  111 1   
   112  110  113 1   
   113  110  118 1   
   114  111  112 2   
   115  111  123 1   
   116  113  114 1   
   117  113  119 1   
   118  113  120 1   
   119  114  115 1   
   120  114  116 2   
   121  115  121 1   
   122  115  122 1   
   123  123  124 1   
   124  123  135 1   
   125  124  125 1   
   126  124  127 1   
   127  124  136 1   
   128  125  126 2   
   129  125  144 1   
   130  127  128 1   
   131  127  137 1   
   132  127  138 1   
   133  128  129 ar  
   134  128  130 ar  
   135  129  131 ar  
   136  129  139 1   
   137  130  132 ar  
   138  130  140 1   
   139  131  133 ar  
   140  131  141 1   
   141  132  133 ar  
   142  132  142 1   
   143  133  134 1   
   144  134  143 1   
   145  144  145 1   
   146  144  153 1   
   147  145  146 1   
   148  145  148 1   
   149  145  154 1   
   150  146  147 2   
   151  146  159 1   
   152  148  149 1   
   153  148  155 1   
   154  148  156 1   
   155  149  150 1   
   156  149  157 1   
   157  149  158 1   
   158  150  151 1   
   159  150  152 1   
   160  159  160 1   
   161  159  168 1   
   162  160  161 1   
   163  160  163 1   
   164  160  169 1   
   165  161  162 2   
   166  161  174 1   
   167  163  164 1   
   168  163  170 1   
   169  163  171 1   
   170  164  165 1   
   171  164  172 1   
   172  164  173 1   
   173  165  166 1   
   174  165  167 1   
   175  174  175 1   
   176  174  179 1   
   177  175  176 1   
   178  175  177 1   
   179  175  178 1   
   180  181  182 1   
   181  181  183 1   
   182  184  185 1   
   183  184  186 1   
@<TRIPOS>SUBSTRUCTURE
     1 MOL         1 TEMP              0 ****  ****    0 ROOT
