@<TRIPOS>MOLECULE
MOL
  179   176     1     0     0
SMALL
resp


@<TRIPOS>ATOM
      1 C1          1.4830    3.1490    6.3970 c3        1 MOL     -0.312663
      2 C2          1.4040    2.4220    5.0150 c         1 MOL      0.709114
      3 O1          2.3370    1.9830    4.3570 o         1 MOL     -0.566441
      4 H1          1.9830    2.5030    7.1190 hc        1 MOL      0.084062
      5 H2          2.0460    4.0760    6.2900 hc        1 MOL      0.084062
      6 H3          0.4760    3.3740    6.7480 hc        1 MOL      0.084062
      7 N1          0.1820    2.3970    4.4730 n         1 MOL     -0.607745
      8 C3         -0.2660    2.2170    3.0860 c3        1 MOL     -0.045914
      9 C4         -0.0520    3.4580    2.2320 c         1 MOL      0.643347
     10 O2         -0.5000    4.5860    2.6250 o         1 MOL     -0.526458
     11 C5         -1.7730    1.9040    3.0910 c3        1 MOL     -0.242104
     12 C6         -2.1260    1.2930    1.7460 c         1 MOL      0.697724
     13 O3         -3.3440    0.9350    1.5550 o         1 MOL     -0.671104
     14 O4         -1.3320    1.0870    0.8250 o         1 MOL     -0.671104
     15 H4         -0.5340    2.8060    5.0470 hn        1 MOL      0.332594
     16 H5          0.2300    1.3320    2.6880 h1        1 MOL      0.103184
     17 H6         -2.3890    2.7750    3.3180 hc        1 MOL      0.091631
     18 H7         -2.0570    1.1100    3.7820 hc        1 MOL      0.091631
     19 N2          0.7200    3.3050    1.1610 n         1 MOL     -0.273377
     20 C7          1.2270    4.5980    0.5680 c3        1 MOL     -0.207426
     21 C8          0.1960    5.4700   -0.1670 c         1 MOL      0.440638
     22 O5          0.1380    6.7080   -0.1040 o         1 MOL     -0.539007
     23 C9          2.4500    4.2440   -0.2430 c3        1 MOL      0.180146
     24 C10         3.4350    5.3730   -0.5060 c3        1 MOL     -0.204619
     25 C11         4.6410    4.8750   -1.3530 c3        1 MOL      0.111414
     26 C12         5.3990    6.0960   -1.8460 c3        1 MOL      0.068538
     27 N3          6.7500    5.7830   -2.1710 n4        1 MOL     -0.464016
     28 H8          1.0090    2.3770    0.9010 hn        1 MOL      0.208919
     29 H9          1.6350    5.2530    1.3430 h1        1 MOL      0.124309
     30 H10         2.1720    3.8530   -1.2300 hc        1 MOL      0.011854
     31 H11         2.9970    3.4570    0.2780 hc        1 MOL      0.011854
     32 H12         3.7850    5.6640    0.4810 hc        1 MOL      0.060604
     33 H13         2.9580    6.1990   -1.0230 hc        1 MOL      0.060604
     34 H14         4.3350    4.3010   -2.2280 hc        1 MOL      0.013520
     35 H15         5.2740    4.2020   -0.7780 hc        1 MOL      0.013520
     36 H16         5.3120    6.8350   -1.0480 hx        1 MOL      0.065666
     37 H17         4.8940    6.4370   -2.7490 hx        1 MOL      0.065666
     38 H18         7.2280    6.6010   -2.5380 hn        1 MOL      0.358111
     39 H19         7.2650    5.5590   -1.3330 hn        1 MOL      0.358111
     40 H20         6.7130    5.0460   -2.8570 hn        1 MOL      0.358111
     41 N4         -0.7710    4.8560   -0.8520 n         1 MOL     -0.218338
     42 C13        -1.9530    5.5130   -1.5060 c3        1 MOL      0.102421
     43 C14        -3.1260    5.3490   -0.5570 c         1 MOL      0.516115
     44 O6         -3.9140    6.3090   -0.5860 o         1 MOL     -0.583276
     45 C15        -2.4040    4.8260   -2.8010 c3        1 MOL     -0.381786
     46 C16        -2.3630    3.2690   -2.8700 c         1 MOL      0.745695
     47 O7         -2.6430    2.7410   -3.9620 o         1 MOL     -0.703160
     48 O8         -2.2070    2.5830   -1.8210 o         1 MOL     -0.703160
     49 H21        -0.8070    3.8540   -0.8180 hn        1 MOL      0.167745
     50 H22        -1.7380    6.5650   -1.6840 h1        1 MOL      0.088335
     51 H23        -1.6940    5.1740   -3.5490 hc        1 MOL      0.115226
     52 H24        -3.4070    5.2020   -3.0110 hc        1 MOL      0.115226
     53 N5         -3.1630    4.2710    0.2000 n         1 MOL     -0.037475
     54 C17        -4.3020    3.9300    1.0930 c3        1 MOL     -0.103447
     55 C18        -5.4550    3.1590    0.4230 c         1 MOL      0.520662
     56 O9         -6.5610    3.3460    0.9270 o         1 MOL     -0.535192
     57 H25        -2.4580    3.5540    0.0670 hn        1 MOL     -0.159382
     58 H26        -4.6280    4.8840    1.5160 h1        1 MOL      0.086219
     59 H27        -3.9560    3.2920    1.9020 h1        1 MOL      0.086219
     60 N6         -5.1780    2.2740   -0.5690 n         1 MOL     -0.324557
     61 C19        -6.1960    1.5230   -1.3560 c3        1 MOL      0.015316
     62 C20        -6.8130    0.2850   -0.5770 c         1 MOL      0.340904
     63 O10        -7.8560   -0.1870   -0.9420 o         1 MOL     -0.495447
     64 C21        -5.6650    1.2430   -2.7830 c3        1 MOL     -0.127208
     65 C22        -4.6970    0.0240   -2.8100 c         1 MOL      0.476669
     66 N7         -4.9510   -1.0510   -3.4720 n         1 MOL     -0.520782
     67 O11        -3.7810   -0.0210   -1.9450 o         1 MOL     -0.652646
     68 H28        -4.2440    1.9700   -0.7700 hn        1 MOL      0.281881
     69 H29        -6.9360    2.2790   -1.6130 h1        1 MOL      0.103223
     70 H30        -5.1390    2.1660   -3.0350 hc        1 MOL      0.084158
     71 H31        -6.4660    1.0200   -3.4950 hc        1 MOL      0.084158
     72 H32        -5.6410   -0.9760   -4.2110 hn        1 MOL      0.308977
     73 H33        -4.2520   -1.7460   -3.6920 hn        1 MOL      0.308977
     74 N8         -6.0030   -0.1770    0.3790 n         1 MOL      0.031158
     75 C23        -6.4230   -1.1250    1.4120 c3        1 MOL     -0.217234
     76 C24        -5.4950   -2.2890    1.6170 c         1 MOL      0.647325
     77 O12        -5.8500   -3.3410    2.1760 o         1 MOL     -0.540221
     78 H34        -5.1430    0.3240    0.5260 hn        1 MOL      0.122123
     79 H35        -7.4010   -1.5580    1.2170 h1        1 MOL      0.102615
     80 H36        -6.4960   -0.7500    2.4290 h1        1 MOL      0.102615
     81 N9         -4.2470   -2.0950    1.1460 n         1 MOL     -0.537220
     82 C25        -3.2450   -3.1200    0.8960 c3        1 MOL      0.034120
     83 C26        -1.8190   -2.4410    0.8010 c         1 MOL      0.689898
     84 O13        -1.3950   -1.8150   -0.1780 o         1 MOL     -0.702783
     85 C27        -3.6980   -3.7510   -0.4170 c3        1 MOL     -0.047859
     86 C28        -4.9320   -4.6560   -0.3700 ca        1 MOL     -0.176004
     87 C29        -6.0510   -4.2720   -1.1580 ca        1 MOL      0.001984
     88 C30        -4.9050   -5.7710    0.4980 ca        1 MOL      0.001984
     89 C31        -7.1750   -5.0950   -1.0680 ca        1 MOL     -0.328061
     90 C32        -6.0460   -6.5800    0.5420 ca        1 MOL     -0.328061
     91 C33        -7.1790   -6.2650   -0.2220 ca        1 MOL      0.372394
     92 O14        -8.3570   -6.9070   -0.0520 oh        1 MOL     -0.494363
     93 H37        -4.0870   -1.1660    0.8080 hn        1 MOL      0.253072
     94 H38        -3.1870   -3.8240    1.7190 h1        1 MOL      0.093526
     95 H39        -2.8870   -4.4250   -0.6800 hc        1 MOL      0.051017
     96 H40        -3.8930   -3.0180   -1.2030 hc        1 MOL      0.051017
     97 H41        -6.0330   -3.4360   -1.8410 ha        1 MOL      0.094519
     98 H42        -3.9660   -6.0580    0.9410 ha        1 MOL      0.094519
     99 H43        -8.0700   -4.7860   -1.6010 ha        1 MOL      0.160443
    100 H44        -6.0940   -7.3340    1.3080 ha        1 MOL      0.160443
    101 H45        -8.3430   -7.5500    0.6660 ho        1 MOL      0.371720
    102 N10        -1.0260   -2.6980    1.8080 n         1 MOL     -0.481113
    103 C34         0.4200   -2.3780    1.7570 c3        1 MOL     -0.012867
    104 C35         1.2180   -3.4190    0.8770 c         1 MOL      0.509725
    105 O15         1.2600   -4.5900    1.1930 o         1 MOL     -0.555926
    106 C36         1.0480   -2.2300    3.1860 c3        1 MOL      0.158400
    107 C37         0.2310   -1.3350    4.0730 c3        1 MOL      0.120698
    108 C38         2.4260   -1.6280    3.1370 c3        1 MOL     -0.353129
    109 C39         0.6900   -1.4180    5.5070 c3        1 MOL     -0.230971
    110 H46        -1.3240   -3.3830    2.4850 hn        1 MOL      0.286627
    111 H47         0.5530   -1.3940    1.3000 h1        1 MOL      0.067496
    112 H48         1.1080   -3.1970    3.6860 hc        1 MOL     -0.017089
    113 H49        -0.8430   -1.4650    4.0000 hc        1 MOL      0.000201
    114 H50         0.4180   -0.3070    3.7360 hc        1 MOL      0.000201
    115 H51         3.1070   -2.0660    2.4030 hc        1 MOL      0.085306
    116 H52         2.3780   -0.5390    3.0790 hc        1 MOL      0.085306
    117 H53         2.8850   -1.9100    4.0780 hc        1 MOL      0.085306
    118 H54         0.5210   -2.4130    5.9130 hc        1 MOL      0.051108
    119 H55         1.7370   -1.1350    5.6080 hc        1 MOL      0.051108
    120 H56         0.0500   -0.8370    6.1700 hc        1 MOL      0.051108
    121 N11         1.8640   -3.0150   -0.2240 n         1 MOL     -0.212252
    122 C40         2.7200   -3.8460   -1.0980 c3        1 MOL     -0.068737
    123 C41         4.1100   -3.9300   -0.5840 c         1 MOL      0.471292
    124 O16         4.4710   -3.0350    0.1700 o         1 MOL     -0.363365
    125 C42         2.6790   -3.3790   -2.5490 c3        1 MOL      0.044609
    126 O17         3.2200   -2.1300   -2.6070 oh        1 MOL     -0.557885
    127 H57         1.9720   -2.0110   -0.2510 hn        1 MOL      0.188570
    128 H58         2.3430   -4.8730   -1.0680 h1        1 MOL      0.069389
    129 H59         1.6250   -3.3480   -2.8510 h1        1 MOL      0.050988
    130 H60         3.2490   -4.0980   -3.1380 h1        1 MOL      0.050988
    131 H61         2.5600   -1.4720   -2.3780 ho        1 MOL      0.430267
    132 N12         5.0080   -4.8640   -1.0530 n         1 MOL     -0.419866
    133 C43         6.3870   -4.9840   -0.5370 c3        1 MOL      0.014919
    134 C44         7.2560   -3.7670   -0.7800 c         1 MOL      0.426743
    135 O18         8.1030   -3.2840   -0.0480 o         1 MOL     -0.485052
    136 C45         6.9490   -6.2810   -1.1960 c3        1 MOL     -0.254268
    137 H62         4.7400   -5.6620   -1.6030 hn        1 MOL      0.290846
    138 H63         6.3970   -5.1440    0.5380 h1        1 MOL      0.108304
    139 H64         6.4290   -7.2280   -1.0640 hc        1 MOL      0.089505
    140 H65         7.0270   -6.2060   -2.2870 hc        1 MOL      0.089505
    141 H66         7.9600   -6.4220   -0.8050 hc        1 MOL      0.089505
    142 N13         7.0250   -3.0520   -1.8990 n         1 MOL     -0.333497
    143 C46         7.6650   -1.7500   -2.1880 c3        1 MOL      0.124378
    144 C47         7.1620   -0.7100   -1.1640 c         1 MOL      0.404426
    145 O19         7.9560    0.0650   -0.6340 o         1 MOL     -0.533992
    146 C48         7.2170   -1.3720   -3.6330 c3        1 MOL     -0.385436
    147 H67         6.5140   -3.5750   -2.6020 hn        1 MOL      0.252581
    148 H68         8.7440   -1.8810   -2.1300 h1        1 MOL      0.088433
    149 H69         6.1810   -1.6770   -3.8030 hc        1 MOL      0.106131
    150 H70         7.2680   -0.2900   -3.7620 hc        1 MOL      0.106131
    151 H71         7.7020   -1.9410   -4.4270 hc        1 MOL      0.106131
    152 N14         5.8580   -0.6560   -0.8020 n         1 MOL     -0.134889
    153 C49         5.2990    0.3850    0.1650 c3        1 MOL     -0.199353
    154 C50         5.6120    0.0300    1.6660 c         1 MOL      0.511844
    155 O20         5.6920    0.9100    2.4980 o         1 MOL     -0.562051
    156 C51         3.7800    0.4130   -0.0540 c3        1 MOL      0.042838
    157 C52         3.3020    0.8320   -1.4970 c3        1 MOL      0.028277
    158 C53         1.7830    0.6820   -1.5540 c         1 MOL      0.592934
    159 O21         1.0390    1.6430   -1.6470 o         1 MOL     -0.699615
    160 O22         1.2700   -0.4410   -1.4560 o         1 MOL     -0.699615
    161 H72         5.1840   -1.3360   -1.1310 hn        1 MOL      0.128538
    162 H73         5.7470    1.3340   -0.1160 h1        1 MOL      0.103202
    163 H74         3.2720    1.0980    0.6350 hc        1 MOL      0.044649
    164 H75         3.3400   -0.5770    0.0820 hc        1 MOL      0.044649
    165 H76         3.7420    0.1220   -2.1890 hc        1 MOL     -0.058403
    166 H77         3.6850    1.8280   -1.7110 hc        1 MOL     -0.058403
    167 N15         5.7650   -1.2280    1.9950 n         1 MOL     -0.013172
    168 C54         6.4200   -1.5700    3.2380 c3        1 MOL     -0.284168
    169 H78         5.7970   -2.2680    3.7960 h1        1 MOL      0.104320
    170 H79         7.3830   -2.0330    3.0260 h1        1 MOL      0.104320
    171 H80         6.5720   -0.6670    3.8300 h1        1 MOL      0.104320
    172 H81         5.5880   -1.9200    1.2780 hn        1 MOL      0.106169
    173 Ca1        -1.2080    0.2440   -1.6430 Ca        1 MOL      1.811595
    174 O23        -0.6320   -2.0410   -3.0530 oh        1 MOL     -0.855770
    175 H82        -0.7930   -2.9510   -2.8240 ho        1 MOL      0.408699
    176 H83         0.1060   -2.0610   -3.6670 ho        1 MOL      0.408699
    177 O24        -0.9440    0.8460   -4.2790 oh        1 MOL     -0.855770
    178 H84        -1.4920    1.6290   -4.3160 ho        1 MOL      0.408699
    179 H85        -0.5470    0.7870   -5.1470 ho        1 MOL      0.408699
@<TRIPOS>BOND
     1    1    2 1   
     2    1    4 1   
     3    1    5 1   
     4    1    6 1   
     5    2    3 2   
     6    2    7 1   
     7    7    8 1   
     8    7   15 1   
     9    8    9 1   
    10    8   11 1   
    11    8   16 1   
    12    9   10 2   
    13    9   19 1   
    14   11   12 1   
    15   11   17 1   
    16   11   18 1   
    17   12   13 1   
    18   12   14 1   
    19   19   20 1   
    20   19   28 1   
    21   20   21 1   
    22   20   23 1   
    23   20   29 1   
    24   21   22 2   
    25   21   41 1   
    26   23   24 1   
    27   23   30 1   
    28   23   31 1   
    29   24   25 1   
    30   24   32 1   
    31   24   33 1   
    32   25   26 1   
    33   25   34 1   
    34   25   35 1   
    35   26   27 1   
    36   26   36 1   
    37   26   37 1   
    38   27   38 1   
    39   27   39 1   
    40   27   40 1   
    41   41   42 1   
    42   41   49 1   
    43   42   43 1   
    44   42   45 1   
    45   42   50 1   
    46   43   44 2   
    47   43   53 1   
    48   45   46 1   
    49   45   51 1   
    50   45   52 1   
    51   46   47 1   
    52   46   48 1   
    53   53   54 1   
    54   53   57 1   
    55   54   55 1   
    56   54   58 1   
    57   54   59 1   
    58   55   56 2   
    59   55   60 1   
    60   60   61 1   
    61   60   68 1   
    62   61   62 1   
    63   61   64 1   
    64   61   69 1   
    65   62   63 2   
    66   62   74 1   
    67   64   65 1   
    68   64   70 1   
    69   64   71 1   
    70   65   66 1   
    71   65   67 2   
    72   66   72 1   
    73   66   73 1   
    74   74   75 1   
    75   74   78 1   
    76   75   76 1   
    77   75   79 1   
    78   75   80 1   
    79   76   77 2   
    80   76   81 1   
    81   81   82 1   
    82   81   93 1   
    83   82   83 1   
    84   82   85 1   
    85   82   94 1   
    86   83   84 2   
    87   83  102 1   
    88   85   86 1   
    89   85   95 1   
    90   85   96 1   
    91   86   87 ar  
    92   86   88 ar  
    93   87   89 ar  
    94   87   97 1   
    95   88   90 ar  
    96   88   98 1   
    97   89   91 ar  
    98   89   99 1   
    99   90   91 ar  
   100   90  100 1   
   101   91   92 1   
   102   92  101 1   
   103  102  103 1   
   104  102  110 1   
   105  103  104 1   
   106  103  106 1   
   107  103  111 1   
   108  104  105 2   
   109  104  121 1   
   110  106  107 1   
   111  106  108 1   
   112  106  112 1   
   113  107  109 1   
   114  107  113 1   
   115  107  114 1   
   116  108  115 1   
   117  108  116 1   
   118  108  117 1   
   119  109  118 1   
   120  109  119 1   
   121  109  120 1   
   122  121  122 1   
   123  121  127 1   
   124  122  123 1   
   125  122  125 1   
   126  122  128 1   
   127  123  124 2   
   128  123  132 1   
   129  125  126 1   
   130  125  129 1   
   131  125  130 1   
   132  126  131 1   
   133  132  133 1   
   134  132  137 1   
   135  133  134 1   
   136  133  136 1   
   137  133  138 1   
   138  134  135 2   
   139  134  142 1   
   140  136  139 1   
   141  136  140 1   
   142  136  141 1   
   143  142  143 1   
   144  142  147 1   
   145  143  144 1   
   146  143  146 1   
   147  143  148 1   
   148  144  145 2   
   149  144  152 1   
   150  146  149 1   
   151  146  150 1   
   152  146  151 1   
   153  152  153 1   
   154  152  161 1   
   155  153  154 1   
   156  153  156 1   
   157  153  162 1   
   158  154  155 2   
   159  154  167 1   
   160  156  157 1   
   161  156  163 1   
   162  156  164 1   
   163  157  158 1   
   164  157  165 1   
   165  157  166 1   
   166  158  159 1   
   167  158  160 1   
   168  167  168 1   
   169  167  172 1   
   170  168  169 1   
   171  168  170 1   
   172  168  171 1   
   173  174  175 1   
   174  174  176 1   
   175  177  178 1   
   176  177  179 1   
@<TRIPOS>SUBSTRUCTURE
     1 MOL         1 TEMP              0 ****  ****    0 ROOT
