@<TRIPOS>MOLECULE
MOL
  189   185     1     0     0
SMALL
resp


@<TRIPOS>ATOM
      1 C1          0.2780   -4.5100    6.0740 c3        1 MOL     -0.301052
      2 C2          0.4820   -3.9460    4.6660 c         1 MOL      0.803420
      3 O1          0.4590   -2.7420    4.5340 o         1 MOL     -0.664204
      4 H1         -0.0780   -5.5380    6.0050 hc        1 MOL      0.062572
      5 H2          1.2240   -4.4890    6.6140 hc        1 MOL      0.062572
      6 H3         -0.4580   -3.9060    6.6040 hc        1 MOL      0.062572
      7 N1          0.7100   -4.8160    3.6880 n         1 MOL     -0.687338
      8 C3          1.0810   -4.3420    2.3670 c3        1 MOL      0.392904
      9 C4          0.6200   -5.2510    1.1630 c         1 MOL      0.240372
     10 O2          0.7600   -6.4870    1.2850 o         1 MOL     -0.528063
     11 C5          2.6120   -4.1990    2.4000 c3        1 MOL     -0.346668
     12 C6          3.2380   -4.0570    1.0410 c         1 MOL      0.708454
     13 O3          3.9330   -4.9490    0.5920 o         1 MOL     -0.646930
     14 O4          3.0320   -3.0110    0.4270 o         1 MOL     -0.646930
     15 H4          0.6900   -5.8100    3.8600 hn        1 MOL      0.339500
     16 H5          0.5790   -3.3820    2.2140 h1        1 MOL      0.025535
     17 H6          2.9050   -5.1540    2.8230 hc        1 MOL      0.057512
     18 H7          3.0130   -3.4720    3.1100 hc        1 MOL      0.057512
     19 N2          0.3590   -4.6420    0.0000 n         1 MOL      0.065677
     20 C7          0.2090   -5.4380   -1.2760 c3        1 MOL     -0.089200
     21 C8          0.9680   -4.9410   -2.5430 c         1 MOL      0.418789
     22 O5          0.8440   -5.5540   -3.5940 o         1 MOL     -0.575698
     23 C9         -1.3630   -5.6220   -1.5450 c3        1 MOL      0.246282
     24 C10        -2.1030   -4.2230   -1.7440 c3        1 MOL     -0.170196
     25 C11        -2.0230   -6.5880   -0.5180 c3        1 MOL     -0.248935
     26 C12        -3.4770   -4.4650   -2.3920 c3        1 MOL      0.015453
     27 H8          0.2880   -3.6410   -0.0740 hn        1 MOL      0.010219
     28 H9          0.5600   -6.4460   -1.0370 h1        1 MOL      0.088596
     29 H10        -1.4370   -6.1870   -2.4810 hc        1 MOL     -0.016164
     30 H11        -1.4080   -3.6190   -2.3240 hc        1 MOL      0.062346
     31 H12        -2.1470   -3.7900   -0.7540 hc        1 MOL      0.062346
     32 H13        -2.7550   -7.1460   -1.0900 hc        1 MOL      0.037724
     33 H14        -1.3950   -7.3340   -0.0400 hc        1 MOL      0.037724
     34 H15        -2.5310   -6.0020    0.2520 hc        1 MOL      0.037724
     35 H16        -4.0510   -3.5470   -2.5070 hc        1 MOL      0.005963
     36 H17        -3.4400   -5.0550   -3.3080 hc        1 MOL      0.005963
     37 H18        -4.1010   -5.1270   -1.7970 hc        1 MOL      0.005963
     38 N3          1.7840   -3.8770   -2.4610 n         1 MOL     -0.189663
     39 C13         2.5750   -3.3690   -3.6120 c3        1 MOL      0.035535
     40 C14         4.0730   -3.1120   -3.2160 c         1 MOL      0.373176
     41 O6          4.8160   -2.7040   -4.0690 o         1 MOL     -0.543002
     42 C15         1.8970   -2.1970   -4.2640 c3        1 MOL     -0.366617
     43 C16         1.7700   -1.0470   -3.3110 c         1 MOL      0.874276
     44 O7          2.3000   -1.0200   -2.1560 o         1 MOL     -0.753473
     45 O8          0.9870   -0.1290   -3.5970 o         1 MOL     -0.753473
     46 H19         1.8770   -3.5100   -1.5230 hn        1 MOL      0.171391
     47 H20         2.5740   -4.0750   -4.4410 h1        1 MOL      0.102739
     48 H21         0.9110   -2.6310   -4.4030 hc        1 MOL      0.108012
     49 H22         2.4570   -1.9560   -5.1760 hc        1 MOL      0.108012
     50 N4          4.5340   -3.3170   -1.9700 n         1 MOL     -0.175030
     51 C17         5.9290   -3.1480   -1.6140 c3        1 MOL     -0.178672
     52 C18         6.5650   -1.7810   -1.5610 c         1 MOL      0.456447
     53 O9          7.7870   -1.7000   -1.3170 o         1 MOL     -0.620565
     54 H23         3.8440   -3.6720   -1.3250 hn        1 MOL      0.101312
     55 H24         6.5650   -3.7990   -2.2230 h1        1 MOL      0.106249
     56 H25         5.9790   -3.5440   -0.5960 h1        1 MOL      0.106249
     57 N5          5.9210   -0.7020   -1.9540 n         1 MOL     -0.138707
     58 C19         6.5150    0.6630   -2.2590 c3        1 MOL     -0.011642
     59 C20         7.2270    1.3890   -1.0650 c         1 MOL      0.439913
     60 O10         8.0460    2.2740   -1.2010 o         1 MOL     -0.566697
     61 C21         5.4820    1.5540   -2.9520 c3        1 MOL     -0.272876
     62 C22         4.2310    1.6950   -2.1030 c         1 MOL      0.810451
     63 O11         4.1480    1.2180   -0.9100 o         1 MOL     -0.682730
     64 O12         3.2710    2.3190   -2.5170 o         1 MOL     -0.682730
     65 H26         4.9800   -0.8290   -2.2940 hn        1 MOL      0.190510
     66 H27         7.2850    0.3860   -2.9690 h1        1 MOL      0.087592
     67 H28         5.2210    1.1770   -3.9440 hc        1 MOL      0.081543
     68 H29         5.9370    2.5320   -3.0650 hc        1 MOL      0.081543
     69 N6          6.9500    1.0650    0.1840 n         1 MOL     -0.197608
     70 C23         7.4090    1.8180    1.3710 c3        1 MOL     -0.085200
     71 C24         6.5140    3.0640    1.4810 c         1 MOL      0.467835
     72 O13         7.0090    4.0460    2.0070 o         1 MOL     -0.595886
     73 H30         6.2570    0.3410    0.2240 hn        1 MOL      0.162661
     74 H31         8.4830    2.0180    1.4460 h1        1 MOL      0.075238
     75 H32         7.2460    1.1230    2.1940 h1        1 MOL      0.075238
     76 N7          5.2690    3.0850    1.0260 n         1 MOL     -0.125855
     77 C25         4.2100    4.0260    1.2980 c3        1 MOL      0.013732
     78 C26         2.9170    3.1350    1.6100 c         1 MOL      0.253450
     79 O14         2.9600    1.9310    1.4990 o         1 MOL     -0.471740
     80 C27         3.9350    4.9670    0.0900 c3        1 MOL      0.091654
     81 C28         5.1680    5.8090   -0.3060 c3        1 MOL     -0.451696
     82 C29         4.9480    7.0780   -1.1540 c         1 MOL      0.748721
     83 N8          5.9300    7.6660   -1.8720 n         1 MOL     -0.822568
     84 O15         3.9410    7.7880   -1.0830 o         1 MOL     -0.564192
     85 H33         4.9280    2.2870    0.5020 hn        1 MOL      0.109586
     86 H34         4.5310    4.6270    2.1600 h1        1 MOL      0.039499
     87 H35         3.1240    5.6400    0.3740 hc        1 MOL      0.027166
     88 H36         3.5890    4.4490   -0.8120 hc        1 MOL      0.027166
     89 H37         5.8200    5.1240   -0.8560 hc        1 MOL      0.136915
     90 H38         5.7090    6.1390    0.5810 hc        1 MOL      0.136915
     91 H39         6.8460    7.2260   -1.8200 hn        1 MOL      0.346662
     92 H40         5.8690    8.6220   -2.1870 hn        1 MOL      0.346662
     93 N9          1.8760    3.7390    2.0380 n         1 MOL     -0.209540
     94 C30         0.6240    3.2220    2.3980 c3        1 MOL      0.045917
     95 C31        -0.3930    3.6770    1.3900 c         1 MOL      0.372517
     96 O16        -0.4070    4.8140    0.9270 o         1 MOL     -0.530153
     97 C32         0.1830    3.4180    3.8530 c3        1 MOL      0.113612
     98 C33        -0.8910    2.3420    4.2680 c3        1 MOL     -0.270757
     99 C34         1.3210    3.3140    4.8220 c3        1 MOL     -0.270757
    100 H41         1.9900    4.7430    1.9670 hn        1 MOL      0.230678
    101 H42         0.7380    2.1450    2.3290 h1        1 MOL      0.140415
    102 H43        -0.2990    4.3960    3.9290 hc        1 MOL     -0.006850
    103 H44        -1.8660    2.3600    3.7870 hc        1 MOL      0.061604
    104 H45        -0.3470    1.4180    4.0640 hc        1 MOL      0.061604
    105 H46        -1.0540    2.3750    5.3380 hc        1 MOL      0.061604
    106 H47         1.9960    2.5280    4.4920 hc        1 MOL      0.061604
    107 H48         1.8310    4.2850    4.8240 hc        1 MOL      0.061604
    108 H49         1.0050    3.0910    5.8410 hc        1 MOL      0.061604
    109 N10        -1.1750    2.6400    0.9430 n         1 MOL     -0.080427
    110 C35        -2.3290    2.7500    0.0360 c3        1 MOL     -0.002899
    111 C36        -3.7260    2.5650    0.8350 c         1 MOL      0.306976
    112 O17        -3.6760    1.9140    1.9080 o         1 MOL     -0.357293
    113 C37        -2.2240    1.6320   -1.0470 c3        1 MOL      0.068072
    114 C38        -3.3110    1.4270   -2.0850 c         1 MOL      0.268591
    115 N11        -3.0600    0.6300   -3.0470 n         1 MOL     -0.509623
    116 O18        -4.2290    2.2220   -2.1140 o         1 MOL     -0.393082
    117 H50        -0.9240    1.7090    1.2600 hn        1 MOL      0.028408
    118 H51        -2.2920    3.7570   -0.3900 h1        1 MOL      0.067671
    119 H52        -2.1180    0.6390   -0.6050 hc        1 MOL      0.060796
    120 H53        -1.2890    1.8630   -1.5620 hc        1 MOL      0.060796
    121 H54        -2.2960    0.0080   -2.8160 hn        1 MOL      0.311580
    122 H55        -3.8830    0.2640   -3.4940 hn        1 MOL      0.311580
    123 N12        -4.8740    3.1070    0.3910 n         1 MOL     -0.375367
    124 C39        -6.1460    2.9540    1.1070 c3        1 MOL      0.071061
    125 C40        -6.4440    1.4350    1.1560 c         1 MOL      0.314364
    126 O19        -6.9980    1.0110    2.1110 o         1 MOL     -0.538138
    127 C41        -7.3240    3.6250    0.4120 c3        1 MOL     -0.104710
    128 C42        -7.3970    3.5080   -1.1160 ca        1 MOL      0.071736
    129 C43        -6.6350    4.4010   -1.9000 ca        1 MOL     -0.202664
    130 C44        -8.1600    2.5070   -1.6970 ca        1 MOL     -0.202664
    131 C45        -6.7900    4.4700   -3.2930 ca        1 MOL     -0.293675
    132 C46        -8.1290    2.4150   -3.1550 ca        1 MOL     -0.293675
    133 C47        -7.5140    3.4870   -3.8980 ca        1 MOL      0.389678
    134 O20        -7.6040    3.4340   -5.3150 oh        1 MOL     -0.573135
    135 H56        -4.9540    3.4440   -0.5530 hn        1 MOL      0.232512
    136 H57        -6.1170    3.3300    2.1320 h1        1 MOL      0.079447
    137 H58        -7.4490    4.6670    0.7040 hc        1 MOL      0.050756
    138 H59        -8.2660    3.2290    0.7700 hc        1 MOL      0.050756
    139 H60        -5.8960    5.0570   -1.4610 ha        1 MOL      0.152100
    140 H61        -8.6230    1.7680   -1.0650 ha        1 MOL      0.152100
    141 H62        -6.2180    5.1770   -3.8640 ha        1 MOL      0.183265
    142 H63        -8.5480    1.5330   -3.6100 ha        1 MOL      0.183265
    143 H64        -7.9920    2.6620   -5.7150 ho        1 MOL      0.396878
    144 N13        -6.0180    0.6470    0.1670 n         1 MOL      0.040563
    145 C48        -6.2110   -0.8690    0.1960 c3        1 MOL     -0.250651
    146 C49        -5.4660   -1.5890    1.3860 c         1 MOL      0.483965
    147 O21        -5.7590   -2.7410    1.7580 o         1 MOL     -0.540875
    148 C50        -5.8180   -1.5290   -1.0840 c3        1 MOL      0.228969
    149 C51        -6.4040   -0.9320   -2.4470 c3        1 MOL     -0.308591
    150 C52        -5.9080   -1.5610   -3.7470 c         1 MOL      0.742936
    151 O22        -6.5050   -2.5590   -4.2230 o         1 MOL     -0.715032
    152 O23        -4.8760   -1.2230   -4.3340 o         1 MOL     -0.715032
    153 H65        -5.6690    1.0820   -0.6790 hn        1 MOL      0.123692
    154 H66        -7.2550   -1.0200    0.4690 h1        1 MOL      0.098978
    155 H67        -5.9880   -2.6100   -1.0660 hc        1 MOL     -0.010474
    156 H68        -4.7330   -1.4490   -1.0780 hc        1 MOL     -0.010474
    157 H69        -6.1490    0.1290   -2.4930 hc        1 MOL      0.029180
    158 H70        -7.4870   -1.0460   -2.3920 hc        1 MOL      0.029180
    159 N14        -4.4930   -0.8460    1.9010 n         1 MOL     -0.246115
    160 C53        -3.5590   -1.3150    2.9970 c3        1 MOL     -0.040336
    161 C54        -4.0160   -0.9090    4.3390 c         1 MOL      0.498042
    162 O24        -4.0640   -1.7840    5.2250 o         1 MOL     -0.588106
    163 C55        -2.1230   -0.9780    2.7540 c3        1 MOL     -0.007416
    164 C56        -1.7440   -1.6680    1.4460 c3        1 MOL      0.111819
    165 C57        -0.4150   -1.1160    1.0270 c         1 MOL      0.431927
    166 O25         0.2570   -1.7660    0.2030 o         1 MOL     -0.581643
    167 O26         0.1350   -0.0790    1.5070 o         1 MOL     -0.581643
    168 H71        -4.2360   -0.0620    1.3180 hn        1 MOL      0.134899
    169 H72        -3.6320   -2.4020    2.9860 h1        1 MOL      0.062602
    170 H73        -1.5110   -1.3240    3.5870 hc        1 MOL      0.032216
    171 H74        -2.0960    0.1100    2.6590 hc        1 MOL      0.032216
    172 H75        -2.4670   -1.4460    0.6660 hc        1 MOL     -0.026244
    173 H76        -1.5600   -2.7290    1.6000 hc        1 MOL     -0.026244
    174 N15        -4.2570    0.3490    4.5170 n         1 MOL     -0.090141
    175 C58        -4.6070    1.0680    5.7110 c3        1 MOL     -0.371721
    176 H77        -4.6860    2.1320    5.4840 h1        1 MOL      0.121104
    177 H78        -5.5640    0.7060    6.0880 h1        1 MOL      0.121104
    178 H79        -3.8370    0.9150    6.4670 h1        1 MOL      0.121104
    179 H80        -4.0960    0.9160    3.6970 hn        1 MOL      0.164560
    180 Ca1         2.5770   -0.4400    0.3780 Ca        1 MOL      1.686235
    181 O27         2.1800   -0.8950    2.9970 oh        1 MOL     -0.935405
    182 O28         1.2620    1.3660   -1.1810 oh        1 MOL     -0.935405
    183 H81         2.2110   -1.3730    3.8170 ho        1 MOL      0.452696
    184 H82         2.0690    1.8360   -1.3880 ho        1 MOL      0.452696
    185 H83         1.3140   -0.5070    2.9610 ho        1 MOL      0.452696
    186 H84         0.9540    1.0290   -2.0300 ho        1 MOL      0.452696
    187 O29         4.9350   -0.9330    1.4200 oh        1 MOL     -0.935405
    188 H85         5.4750   -1.7150    1.3140 ho        1 MOL      0.452696
    189 H86         5.0570   -0.6700    2.3380 ho        1 MOL      0.452696
@<TRIPOS>BOND
     1    1    2 1   
     2    1    4 1   
     3    1    5 1   
     4    1    6 1   
     5    2    3 2   
     6    2    7 1   
     7    7    8 1   
     8    7   15 1   
     9    8    9 1   
    10    8   11 1   
    11    8   16 1   
    12    9   10 2   
    13    9   19 1   
    14   11   12 1   
    15   11   17 1   
    16   11   18 1   
    17   12   13 1   
    18   12   14 1   
    19   19   20 1   
    20   19   27 1   
    21   20   21 1   
    22   20   23 1   
    23   20   28 1   
    24   21   22 2   
    25   21   38 1   
    26   23   24 1   
    27   23   25 1   
    28   23   29 1   
    29   24   26 1   
    30   24   30 1   
    31   24   31 1   
    32   25   32 1   
    33   25   33 1   
    34   25   34 1   
    35   26   35 1   
    36   26   36 1   
    37   26   37 1   
    38   38   39 1   
    39   38   46 1   
    40   39   40 1   
    41   39   42 1   
    42   39   47 1   
    43   40   41 2   
    44   40   50 1   
    45   42   43 1   
    46   42   48 1   
    47   42   49 1   
    48   43   44 1   
    49   43   45 1   
    50   50   51 1   
    51   50   54 1   
    52   51   52 1   
    53   51   55 1   
    54   51   56 1   
    55   52   53 2   
    56   52   57 1   
    57   57   58 1   
    58   57   65 1   
    59   58   59 1   
    60   58   61 1   
    61   58   66 1   
    62   59   60 2   
    63   59   69 1   
    64   61   62 1   
    65   61   67 1   
    66   61   68 1   
    67   62   63 1   
    68   62   64 1   
    69   69   70 1   
    70   69   73 1   
    71   70   71 1   
    72   70   74 1   
    73   70   75 1   
    74   71   72 2   
    75   71   76 1   
    76   76   77 1   
    77   76   85 1   
    78   77   78 1   
    79   77   80 1   
    80   77   86 1   
    81   78   79 2   
    82   78   93 1   
    83   80   81 1   
    84   80   87 1   
    85   80   88 1   
    86   81   82 1   
    87   81   89 1   
    88   81   90 1   
    89   82   83 1   
    90   82   84 2   
    91   83   91 1   
    92   83   92 1   
    93   93   94 1   
    94   93  100 1   
    95   94   95 1   
    96   94   97 1   
    97   94  101 1   
    98   95   96 2   
    99   95  109 1   
   100   97   98 1   
   101   97   99 1   
   102   97  102 1   
   103   98  103 1   
   104   98  104 1   
   105   98  105 1   
   106   99  106 1   
   107   99  107 1   
   108   99  108 1   
   109  109  110 1   
   110  109  117 1   
   111  110  111 1   
   112  110  113 1   
   113  110  118 1   
   114  111  112 2   
   115  111  123 1   
   116  113  114 1   
   117  113  119 1   
   118  113  120 1   
   119  114  115 1   
   120  114  116 2   
   121  115  121 1   
   122  115  122 1   
   123  123  124 1   
   124  123  135 1   
   125  124  125 1   
   126  124  127 1   
   127  124  136 1   
   128  125  126 2   
   129  125  144 1   
   130  127  128 1   
   131  127  137 1   
   132  127  138 1   
   133  128  129 ar  
   134  128  130 ar  
   135  129  131 ar  
   136  129  139 1   
   137  130  132 ar  
   138  130  140 1   
   139  131  133 ar  
   140  131  141 1   
   141  132  133 ar  
   142  132  142 1   
   143  133  134 1   
   144  134  143 1   
   145  144  145 1   
   146  144  153 1   
   147  145  146 1   
   148  145  148 1   
   149  145  154 1   
   150  146  147 2   
   151  146  159 1   
   152  148  149 1   
   153  148  155 1   
   154  148  156 1   
   155  149  150 1   
   156  149  157 1   
   157  149  158 1   
   158  150  151 1   
   159  150  152 1   
   160  159  160 1   
   161  159  168 1   
   162  160  161 1   
   163  160  163 1   
   164  160  169 1   
   165  161  162 2   
   166  161  174 1   
   167  163  164 1   
   168  163  170 1   
   169  163  171 1   
   170  164  165 1   
   171  164  172 1   
   172  164  173 1   
   173  165  166 1   
   174  165  167 1   
   175  174  175 1   
   176  174  179 1   
   177  175  176 1   
   178  175  177 1   
   179  175  178 1   
   180  181  183 1   
   181  181  185 1   
   182  182  184 1   
   183  182  186 1   
   184  187  188 1   
   185  187  189 1   
@<TRIPOS>SUBSTRUCTURE
     1 MOL         1 TEMP              0 ****  ****    0 ROOT
