@<TRIPOS>MOLECULE
MOL
  189   185     1     0     0
SMALL
resp


@<TRIPOS>ATOM
      1 C1          0.0170    2.2550    6.3440 c3        1 MOL     -0.427770
      2 C2         -0.5090    1.9060    4.9140 c         1 MOL      0.729965
      3 O1         -0.4220    0.7660    4.3490 o         1 MOL     -0.628637
      4 H1          0.3430    3.2960    6.3670 hc        1 MOL      0.113474
      5 H2         -0.7810    2.1080    7.0720 hc        1 MOL      0.113474
      6 H3          0.8580    1.6070    6.5910 hc        1 MOL      0.113474
      7 N1         -1.1450    2.9620    4.3400 n         1 MOL     -0.618763
      8 C3         -1.8350    2.9370    3.0350 c3        1 MOL      0.290970
      9 C4         -1.6100    4.2580    2.3520 c         1 MOL      0.382962
     10 O2         -1.5600    5.2550    3.0510 o         1 MOL     -0.561976
     11 C5         -3.2920    2.8310    3.3830 c3        1 MOL     -0.247278
     12 C6         -4.1510    2.8130    2.1510 c         1 MOL      0.590711
     13 O3         -5.2220    3.4780    2.0770 o         1 MOL     -0.605094
     14 O4         -3.7790    1.9930    1.2240 o         1 MOL     -0.605094
     15 H4         -1.0930    3.8400    4.8250 hn        1 MOL      0.321328
     16 H5         -1.4130    2.1120    2.4440 h1        1 MOL      0.049567
     17 H6         -3.5530    3.7120    3.9630 hc        1 MOL      0.053864
     18 H7         -3.4390    1.9180    3.9650 hc        1 MOL      0.053864
     19 N2         -1.7590    4.2110    1.0090 n         1 MOL      0.123781
     20 C7         -2.1720    5.3670    0.1610 c3        1 MOL     -0.029967
     21 C8         -3.4030    5.1620   -0.6690 c         1 MOL      0.388479
     22 O5         -4.0880    6.1210   -1.0420 o         1 MOL     -0.595869
     23 C9         -1.0240    5.8330   -0.6960 c3        1 MOL      0.029147
     24 C10        -0.5520    4.9340   -1.8770 c3        1 MOL      0.138269
     25 C11         0.1910    6.2190    0.1760 c3        1 MOL     -0.236871
     26 C12         0.1500    5.6940   -2.9710 c3        1 MOL     -0.244366
     27 H8         -1.6830    3.2700    0.6540 hn        1 MOL     -0.213460
     28 H9         -2.5300    6.1770    0.7940 h1        1 MOL      0.080901
     29 H10        -1.3920    6.7870   -1.0800 hc        1 MOL      0.006881
     30 H11        -1.4000    4.4440   -2.3600 hc        1 MOL      0.021050
     31 H12         0.0860    4.1250   -1.5100 hc        1 MOL      0.021050
     32 H13        -0.1150    6.6860    1.1120 hc        1 MOL      0.050055
     33 H14         0.7130    5.3490    0.5590 hc        1 MOL      0.050055
     34 H15         0.8960    6.8410   -0.3930 hc        1 MOL      0.050055
     35 H16         0.2730    5.0390   -3.8430 hc        1 MOL      0.049443
     36 H17        -0.5470    6.4770   -3.2700 hc        1 MOL      0.049443
     37 H18         1.1240    6.1060   -2.6980 hc        1 MOL      0.049443
     38 N3         -3.8110    3.9570   -1.0320 n         1 MOL     -0.063207
     39 C13        -4.8790    3.6730   -2.0650 c3        1 MOL     -0.078204
     40 C14        -6.1160    2.8660   -1.6230 c         1 MOL      0.466333
     41 O6         -7.1100    2.9730   -2.2820 o         1 MOL     -0.558233
     42 C15        -4.2420    3.0160   -3.2980 c3        1 MOL     -0.152401
     43 C16        -3.3140    1.8610   -3.0270 c         1 MOL      0.625754
     44 O7         -3.2070    1.3820   -1.8320 o         1 MOL     -0.659120
     45 O8         -2.5710    1.3620   -3.8440 o         1 MOL     -0.659120
     46 H19        -3.3990    3.1460   -0.5810 hn        1 MOL      0.174923
     47 H20        -5.3140    4.6280   -2.3700 h1        1 MOL      0.106236
     48 H21        -3.5920    3.6980   -3.8410 hc        1 MOL      0.041997
     49 H22        -4.9910    2.7830   -4.0580 hc        1 MOL      0.041997
     50 N4         -6.0580    2.1590   -0.4950 n         1 MOL     -0.072003
     51 C17        -7.2120    1.6010    0.1600 c3        1 MOL     -0.133883
     52 C18        -7.7440    0.3010   -0.3420 c         1 MOL      0.464344
     53 O9         -8.9160   -0.0130   -0.1650 o         1 MOL     -0.613918
     54 H23        -5.2070    2.0320    0.0370 hn        1 MOL      0.027000
     55 H24        -8.0920    2.2390    0.1460 h1        1 MOL      0.068387
     56 H25        -6.9110    1.3660    1.1740 h1        1 MOL      0.068387
     57 N5         -6.8730   -0.3720   -1.0820 n         1 MOL     -0.088582
     58 C19        -7.1060   -1.4700   -1.9490 c3        1 MOL     -0.054631
     59 C20        -7.2100   -2.7810   -1.1200 c         1 MOL      0.415379
     60 O10        -7.4800   -3.7820   -1.7790 o         1 MOL     -0.515136
     61 C21        -5.9330   -1.5550   -2.9980 c3        1 MOL     -0.450530
     62 C22        -4.5700   -1.6680   -2.4000 c         1 MOL      0.852922
     63 O11        -4.3680   -1.6560   -1.1590 o         1 MOL     -0.715098
     64 O12        -3.6530   -1.8920   -3.2550 o         1 MOL     -0.715098
     65 H26        -5.9410   -0.0000   -0.9500 hn        1 MOL      0.089991
     66 H27        -8.0770   -1.1850   -2.3340 h1        1 MOL      0.112385
     67 H28        -5.9170   -0.6180   -3.5550 hc        1 MOL      0.144922
     68 H29        -6.1300   -2.4630   -3.5650 hc        1 MOL      0.144922
     69 N6         -6.9590   -2.8140    0.1940 n         1 MOL     -0.261953
     70 C23        -7.0370   -4.0740    0.9550 c3        1 MOL     -0.237280
     71 C24        -5.7810   -4.9020    1.0190 c         1 MOL      0.612759
     72 O13        -5.7860   -6.0650    1.4770 o         1 MOL     -0.595959
     73 H30        -6.6230   -1.9680    0.6400 hn        1 MOL      0.280871
     74 H31        -7.8750   -4.6320    0.5280 h1        1 MOL      0.104600
     75 H32        -7.2940   -3.7520    1.9620 h1        1 MOL      0.104600
     76 N7         -4.6230   -4.3130    0.6820 n         1 MOL     -0.433987
     77 C25        -3.2440   -4.9160    0.8710 c3        1 MOL      0.084524
     78 C26        -2.2280   -3.8460    1.2470 c         1 MOL      0.473738
     79 O14        -2.4000   -2.6880    0.8880 o         1 MOL     -0.606846
     80 C27        -2.8780   -5.7160   -0.3870 c3        1 MOL     -0.099693
     81 C28        -2.9480   -4.7770   -1.6730 c3        1 MOL     -0.151330
     82 C29        -2.6500   -5.3640   -3.0230 c         1 MOL      0.672637
     83 N8         -2.5100   -4.6040   -4.1130 n         1 MOL     -0.816583
     84 O15        -2.5530   -6.5560   -3.2010 o         1 MOL     -0.617964
     85 H33        -4.7220   -3.3690    0.3270 hn        1 MOL      0.332174
     86 H34        -3.2910   -5.6490    1.6770 h1        1 MOL      0.046613
     87 H35        -3.4320   -6.6520   -0.4230 hc        1 MOL      0.052262
     88 H36        -1.8410   -6.0030   -0.2200 hc        1 MOL      0.052262
     89 H37        -2.3110   -3.8950   -1.5890 hc        1 MOL      0.096973
     90 H38        -3.9710   -4.3870   -1.6630 hc        1 MOL      0.096973
     91 H39        -2.7140   -3.6140   -4.0800 hn        1 MOL      0.360085
     92 H40        -2.2450   -5.0280   -4.9840 hn        1 MOL      0.360085
     93 N9         -1.1310   -4.1420    1.9280 n         1 MOL     -0.474765
     94 C30        -0.0870   -3.1530    2.1520 c3        1 MOL      0.074788
     95 C31         1.1030   -3.3700    1.1310 c         1 MOL      0.644483
     96 O16         1.6050   -4.5100    1.0980 o         1 MOL     -0.604254
     97 C32         0.3240   -3.0810    3.6630 c3        1 MOL      0.206575
     98 C33         0.8030   -4.4080    4.1810 c3        1 MOL     -0.350945
     99 C34         1.4920   -2.0920    3.9480 c3        1 MOL     -0.350945
    100 H41        -1.0020   -5.0810    2.2610 hn        1 MOL      0.295629
    101 H42        -0.3600   -2.1240    1.9180 h1        1 MOL      0.084335
    102 H43        -0.5420   -2.7860    4.2560 hc        1 MOL     -0.005576
    103 H44         1.7670   -4.6330    3.7170 hc        1 MOL      0.078858
    104 H45         0.9580   -4.2850    5.2580 hc        1 MOL      0.078858
    105 H46         0.0650   -5.1950    4.1460 hc        1 MOL      0.078858
    106 H47         1.7550   -2.1840    4.9940 hc        1 MOL      0.078858
    107 H48         2.3520   -2.2650    3.3020 hc        1 MOL      0.078858
    108 H49         1.2400   -1.0870    3.6010 hc        1 MOL      0.078858
    109 N10         1.4600   -2.3200    0.3610 n         1 MOL     -0.290111
    110 C35         2.5690   -2.3270   -0.6070 c3        1 MOL      0.008836
    111 C36         3.9820   -2.1720    0.0420 c         1 MOL      0.363545
    112 O17         4.1580   -1.7860    1.1920 o         1 MOL     -0.365024
    113 C37         2.1240   -1.2590   -1.6380 c3        1 MOL     -0.052105
    114 C38         3.2420   -0.9960   -2.6140 c         1 MOL      0.525339
    115 N11         3.4320   -2.0050   -3.4760 n         1 MOL     -0.699661
    116 O18         3.8880    0.0400   -2.6550 o         1 MOL     -0.422049
    117 H50         1.0050   -1.4700    0.6400 hn        1 MOL      0.057115
    118 H51         2.6010   -3.3020   -1.0820 h1        1 MOL      0.046493
    119 H52         2.0310   -0.3670   -1.0150 hc        1 MOL      0.066950
    120 H53         1.1970   -1.5660   -2.1320 hc        1 MOL      0.066950
    121 H54         2.7880   -2.7860   -3.5150 hn        1 MOL      0.341352
    122 H55         4.0240   -1.8120   -4.2710 hn        1 MOL      0.341352
    123 N12         5.0680   -2.2810   -0.7470 n         1 MOL     -0.354509
    124 C39         6.4180   -1.9130   -0.2770 c3        1 MOL      0.126636
    125 C40         6.6620   -0.3830   -0.1090 c         1 MOL      0.631620
    126 O19         7.2470    0.0710    0.8930 o         1 MOL     -0.596515
    127 C41         7.4280   -2.4820   -1.2720 c3        1 MOL     -0.238031
    128 C42         8.9120   -2.2260   -1.0450 ca        1 MOL      0.032440
    129 C43         9.5930   -2.9490   -0.0710 ca        1 MOL     -0.077794
    130 C44         9.6550   -1.4080   -1.9250 ca        1 MOL     -0.077794
    131 C45        10.9640   -2.7300    0.1810 ca        1 MOL     -0.375864
    132 C46        11.0360   -1.0960   -1.6330 ca        1 MOL     -0.375864
    133 C47        11.6570   -1.6990   -0.4870 ca        1 MOL      0.442746
    134 O20        12.8860   -1.2500   -0.0120 oh        1 MOL     -0.559589
    135 H56         4.8840   -2.4880   -1.7190 hn        1 MOL      0.188816
    136 H57         6.6450   -2.3350    0.7080 h1        1 MOL      0.064681
    137 H58         7.2060   -2.1100   -2.2750 hc        1 MOL      0.079347
    138 H59         7.3160   -3.5520   -1.4160 hc        1 MOL      0.079347
    139 H60         9.1300   -3.7710    0.4700 ha        1 MOL      0.125528
    140 H61         9.1550   -0.8220   -2.6740 ha        1 MOL      0.125528
    141 H62        11.4370   -3.2540    1.0090 ha        1 MOL      0.170570
    142 H63        11.5010   -0.3170   -2.2130 ha        1 MOL      0.170570
    143 H64        13.2330   -0.5050   -0.5130 ho        1 MOL      0.391997
    144 N13         6.0170    0.5030   -0.8550 n         1 MOL     -0.413730
    145 C48         6.0330    1.9820   -0.6730 c3        1 MOL     -0.075545
    146 C49         5.1760    2.5280    0.4710 c         1 MOL      0.457260
    147 O21         4.9300    3.7160    0.6190 o         1 MOL     -0.533803
    148 C50         5.7840    2.7780   -2.0180 c3        1 MOL      0.062549
    149 C51         6.4600    2.1380   -3.2990 c3        1 MOL     -0.143944
    150 C52         6.1480    2.9760   -4.6140 c         1 MOL      0.669908
    151 O22         5.8500    4.1920   -4.5250 o         1 MOL     -0.721340
    152 O23         6.2710    2.2990   -5.6650 o         1 MOL     -0.721340
    153 H65         5.4440    0.2410   -1.6350 hn        1 MOL      0.292156
    154 H66         7.0420    2.1830   -0.3060 h1        1 MOL      0.100954
    155 H67         6.1100    3.8110   -1.9070 hc        1 MOL      0.026878
    156 H68         4.7050    2.7190   -2.1360 hc        1 MOL      0.026878
    157 H69         6.1830    1.0950   -3.4590 hc        1 MOL     -0.020758
    158 H70         7.5210    2.0690   -3.0540 hc        1 MOL     -0.020758
    159 N14         4.6300    1.5490    1.2290 n         1 MOL     -0.168025
    160 C53         3.6820    1.7530    2.2690 c3        1 MOL     -0.157909
    161 C54         4.2940    1.0370    3.4820 c         1 MOL      0.520460
    162 O24         4.1750    1.5680    4.5780 o         1 MOL     -0.594469
    163 C55         2.2670    1.1430    1.8790 c3        1 MOL      0.013898
    164 C56         1.5830    1.8560    0.6280 c3        1 MOL     -0.062972
    165 C57         0.2270    1.2410    0.3560 c         1 MOL      0.665640
    166 O25        -0.7600    1.8950   -0.0800 o         1 MOL     -0.649112
    167 O26         0.0600    0.0440    0.6840 o         1 MOL     -0.649112
    168 H71         4.8710    0.6010    0.9320 hn        1 MOL      0.035827
    169 H72         3.6440    2.8230    2.4470 h1        1 MOL      0.121664
    170 H73         1.6120    1.3180    2.7260 hc        1 MOL      0.059084
    171 H74         2.4280    0.1100    1.5980 hc        1 MOL      0.059084
    172 H75         2.1820    1.7760   -0.2830 hc        1 MOL      0.039089
    173 H76         1.4590    2.8960    0.9050 hc        1 MOL      0.039089
    174 N15         5.0340   -0.0370    3.3750 n         1 MOL     -0.102203
    175 C58         5.7060   -0.7020    4.4860 c3        1 MOL     -0.175408
    176 H77         5.7810   -1.7700    4.2780 h1        1 MOL      0.073332
    177 H78         6.7050   -0.2860    4.6090 h1        1 MOL      0.073332
    178 H79         5.1330   -0.5500    5.4020 h1        1 MOL      0.073332
    179 H80         4.9560   -0.5270    2.4990 hn        1 MOL      0.111233
    180 Ca1        -2.5990   -0.1540    0.1270 Ca        1 MOL      1.777226
    181 O27        -2.3490   -0.2350    2.7410 oh        1 MOL     -0.911861
    182 H81        -2.9310   -0.6360    3.3710 ho        1 MOL      0.426497
    183 H82        -1.5480   -0.0530    3.2400 ho        1 MOL      0.426497
    184 O28        -1.0900   -0.7720   -2.1300 oh        1 MOL     -0.911861
    185 H83        -0.6350   -0.1210   -2.6620 ho        1 MOL      0.426497
    186 H84        -1.7720   -1.1170   -2.7010 ho        1 MOL      0.426497
    187 O29        -5.0790   -0.4120    1.5120 oh        1 MOL     -0.911861
    188 H85        -4.7110    0.4520    1.6770 ho        1 MOL      0.426497
    189 H86        -5.6040   -0.6010    2.2930 ho        1 MOL      0.426497
@<TRIPOS>BOND
     1    1    2 1   
     2    1    4 1   
     3    1    5 1   
     4    1    6 1   
     5    2    3 2   
     6    2    7 1   
     7    7    8 1   
     8    7   15 1   
     9    8    9 1   
    10    8   11 1   
    11    8   16 1   
    12    9   10 2   
    13    9   19 1   
    14   11   12 1   
    15   11   17 1   
    16   11   18 1   
    17   12   13 1   
    18   12   14 1   
    19   19   20 1   
    20   19   27 1   
    21   20   21 1   
    22   20   23 1   
    23   20   28 1   
    24   21   22 2   
    25   21   38 1   
    26   23   24 1   
    27   23   25 1   
    28   23   29 1   
    29   24   26 1   
    30   24   30 1   
    31   24   31 1   
    32   25   32 1   
    33   25   33 1   
    34   25   34 1   
    35   26   35 1   
    36   26   36 1   
    37   26   37 1   
    38   38   39 1   
    39   38   46 1   
    40   39   40 1   
    41   39   42 1   
    42   39   47 1   
    43   40   41 2   
    44   40   50 1   
    45   42   43 1   
    46   42   48 1   
    47   42   49 1   
    48   43   44 1   
    49   43   45 1   
    50   50   51 1   
    51   50   54 1   
    52   51   52 1   
    53   51   55 1   
    54   51   56 1   
    55   52   53 2   
    56   52   57 1   
    57   57   58 1   
    58   57   65 1   
    59   58   59 1   
    60   58   61 1   
    61   58   66 1   
    62   59   60 2   
    63   59   69 1   
    64   61   62 1   
    65   61   67 1   
    66   61   68 1   
    67   62   63 1   
    68   62   64 1   
    69   69   70 1   
    70   69   73 1   
    71   70   71 1   
    72   70   74 1   
    73   70   75 1   
    74   71   72 2   
    75   71   76 1   
    76   76   77 1   
    77   76   85 1   
    78   77   78 1   
    79   77   80 1   
    80   77   86 1   
    81   78   79 2   
    82   78   93 1   
    83   80   81 1   
    84   80   87 1   
    85   80   88 1   
    86   81   82 1   
    87   81   89 1   
    88   81   90 1   
    89   82   83 1   
    90   82   84 2   
    91   83   91 1   
    92   83   92 1   
    93   93   94 1   
    94   93  100 1   
    95   94   95 1   
    96   94   97 1   
    97   94  101 1   
    98   95   96 2   
    99   95  109 1   
   100   97   98 1   
   101   97   99 1   
   102   97  102 1   
   103   98  103 1   
   104   98  104 1   
   105   98  105 1   
   106   99  106 1   
   107   99  107 1   
   108   99  108 1   
   109  109  110 1   
   110  109  117 1   
   111  110  111 1   
   112  110  113 1   
   113  110  118 1   
   114  111  112 2   
   115  111  123 1   
   116  113  114 1   
   117  113  119 1   
   118  113  120 1   
   119  114  115 1   
   120  114  116 2   
   121  115  121 1   
   122  115  122 1   
   123  123  124 1   
   124  123  135 1   
   125  124  125 1   
   126  124  127 1   
   127  124  136 1   
   128  125  126 2   
   129  125  144 1   
   130  127  128 1   
   131  127  137 1   
   132  127  138 1   
   133  128  129 ar  
   134  128  130 ar  
   135  129  131 ar  
   136  129  139 1   
   137  130  132 ar  
   138  130  140 1   
   139  131  133 ar  
   140  131  141 1   
   141  132  133 ar  
   142  132  142 1   
   143  133  134 1   
   144  134  143 1   
   145  144  145 1   
   146  144  153 1   
   147  145  146 1   
   148  145  148 1   
   149  145  154 1   
   150  146  147 2   
   151  146  159 1   
   152  148  149 1   
   153  148  155 1   
   154  148  156 1   
   155  149  150 1   
   156  149  157 1   
   157  149  158 1   
   158  150  151 1   
   159  150  152 1   
   160  159  160 1   
   161  159  168 1   
   162  160  161 1   
   163  160  163 1   
   164  160  169 1   
   165  161  162 2   
   166  161  174 1   
   167  163  164 1   
   168  163  170 1   
   169  163  171 1   
   170  164  165 1   
   171  164  172 1   
   172  164  173 1   
   173  165  166 1   
   174  165  167 1   
   175  174  175 1   
   176  174  179 1   
   177  175  176 1   
   178  175  177 1   
   179  175  178 1   
   180  181  182 1   
   181  181  183 1   
   182  184  185 1   
   183  184  186 1   
   184  187  188 1   
   185  187  189 1   
@<TRIPOS>SUBSTRUCTURE
     1 MOL         1 TEMP              0 ****  ****    0 ROOT
