@<TRIPOS>MOLECULE
MOL
  189   185     1     0     0
SMALL
resp


@<TRIPOS>ATOM
      1 C1          1.6290   -3.5980    6.3200 c3        1 MOL     -0.477771
      2 C2          1.6180   -3.1260    4.8190 c         1 MOL      0.751965
      3 O1          1.3860   -1.9220    4.5550 o         1 MOL     -0.579055
      4 H1          2.1540   -2.8610    6.9280 hc        1 MOL      0.122673
      5 H2          0.6040   -3.7000    6.6780 hc        1 MOL      0.122673
      6 H3          2.1380   -4.5590    6.3960 hc        1 MOL      0.122673
      7 N1          1.7350   -4.1080    3.9080 n         1 MOL     -0.620629
      8 C3          2.2470   -3.7020    2.6300 c3        1 MOL      0.080222
      9 C4          2.0640   -4.9060    1.6050 c         1 MOL      0.538440
     10 O2          2.1230   -6.0690    2.0690 o         1 MOL     -0.573027
     11 C5          3.7250   -3.4690    2.7640 c3        1 MOL     -0.453236
     12 C6          4.3340   -2.7840    1.5360 c         1 MOL      0.697139
     13 O3          3.6130   -2.0670    0.7790 o         1 MOL     -0.655442
     14 O4          5.5540   -3.0230    1.2390 o         1 MOL     -0.655442
     15 H4          2.0400   -5.0040    4.2670 hn        1 MOL      0.340415
     16 H5          1.7310   -2.7940    2.3320 h1        1 MOL      0.180270
     17 H6          4.1290   -4.4670    2.9460 hc        1 MOL      0.107960
     18 H7          3.7780   -2.7380    3.5820 hc        1 MOL      0.107960
     19 N2          1.8910   -4.5890    0.2790 n         1 MOL     -0.016178
     20 C7          2.1670   -5.5450   -0.8370 c3        1 MOL      0.009334
     21 C8          3.3730   -5.1440   -1.7450 c         1 MOL      0.408512
     22 O5          4.2980   -5.9100   -2.0860 o         1 MOL     -0.543984
     23 C9          0.8290   -5.6650   -1.7100 c3        1 MOL      0.029339
     24 C10        -0.3320   -6.4050   -0.8920 c3        1 MOL      0.324277
     25 C11         1.0650   -6.4430   -3.0660 c3        1 MOL     -0.198027
     26 C12        -0.0660   -7.8930   -0.6630 c3        1 MOL     -0.367307
     27 H8          1.8100   -3.6300   -0.0260 hn        1 MOL     -0.083687
     28 H9          2.4680   -6.4880   -0.3740 h1        1 MOL      0.042931
     29 H10         0.5110   -4.6860   -2.0580 hc        1 MOL      0.022668
     30 H11        -1.2670   -6.2750   -1.4150 hc        1 MOL     -0.065625
     31 H12        -0.4620   -5.9120    0.0700 hc        1 MOL     -0.065625
     32 H13         1.4480   -7.4650   -3.0490 hc        1 MOL      0.038552
     33 H14         0.0900   -6.4830   -3.5440 hc        1 MOL      0.038552
     34 H15         1.7600   -5.8810   -3.6860 hc        1 MOL      0.038552
     35 H16         0.8500   -8.0910   -0.1230 hc        1 MOL      0.069172
     36 H17        -0.9400   -8.2990   -0.1570 hc        1 MOL      0.069172
     37 H18        -0.2060   -8.2930   -1.6770 hc        1 MOL      0.069172
     38 N3          3.3150   -3.8620   -2.1830 n         1 MOL     -0.147874
     39 C13         3.9830   -3.3070   -3.3460 c3        1 MOL     -0.195250
     40 C14         5.3170   -2.5800   -3.0280 c         1 MOL      0.380364
     41 O6          6.2080   -2.3550   -3.8450 o         1 MOL     -0.522536
     42 C15         3.0450   -2.3450   -4.0920 c3        1 MOL     -0.231916
     43 C16         2.4070   -1.2300   -3.3510 c         1 MOL      0.633199
     44 O7          2.7070   -1.0420   -2.1470 o         1 MOL     -0.645280
     45 O8          1.6440   -0.4350   -3.9760 o         1 MOL     -0.645280
     46 H19         2.6740   -3.2200   -1.7410 hn        1 MOL      0.351338
     47 H20         4.1910   -4.0710   -4.0970 h1        1 MOL      0.151511
     48 H21         2.3190   -2.9070   -4.6900 hc        1 MOL      0.083463
     49 H22         3.5850   -1.9680   -4.9680 hc        1 MOL      0.083463
     50 N4          5.5680   -2.2570   -1.6990 n         1 MOL     -0.015270
     51 C17         6.7520   -1.5800   -1.2330 c3        1 MOL     -0.088827
     52 C18         7.0250   -0.2110   -1.8830 c         1 MOL      0.450919
     53 O9          8.1510    0.1310   -2.1690 o         1 MOL     -0.568204
     54 H23         4.8050   -2.3680   -1.0470 hn        1 MOL      0.027151
     55 H24         7.6130   -2.2100   -1.4750 h1        1 MOL      0.047086
     56 H25         6.6450   -1.3380   -0.1780 h1        1 MOL      0.047086
     57 N5          5.9310    0.5350   -2.1650 n         1 MOL     -0.173628
     58 C19         6.0290    1.8390   -2.8540 c3        1 MOL     -0.117781
     59 C20         6.4470    2.9450   -1.8970 c         1 MOL      0.594906
     60 O10         7.1440    3.8300   -2.3730 o         1 MOL     -0.566665
     61 C21         4.6570    2.2660   -3.5020 c3        1 MOL     -0.186682
     62 C22         3.5600    2.5320   -2.4640 c         1 MOL      0.622928
     63 O11         3.5380    1.9310   -1.3720 o         1 MOL     -0.668842
     64 O12         2.6410    3.3300   -2.8190 o         1 MOL     -0.668842
     65 H26         4.9900    0.2490   -1.9360 hn        1 MOL      0.220345
     66 H27         6.7800    1.7380   -3.6290 h1        1 MOL      0.108524
     67 H28         4.3480    1.4550   -4.1610 hc        1 MOL      0.074971
     68 H29         4.9470    3.1170   -4.1220 hc        1 MOL      0.074971
     69 N6          6.1050    2.8420   -0.5830 n         1 MOL     -0.447767
     70 C23         6.5490    3.7940    0.4640 c3        1 MOL      0.002855
     71 C24         5.4790    4.6090    1.1250 c         1 MOL      0.510574
     72 O13         5.7330    5.5020    1.8790 o         1 MOL     -0.580552
     73 H30         5.4320    2.1410   -0.3050 hn        1 MOL      0.244744
     74 H31         7.3280    4.4500    0.0830 h1        1 MOL      0.064378
     75 H32         7.0290    3.2910    1.3010 h1        1 MOL      0.064378
     76 N7          4.1720    4.2850    0.9280 n         1 MOL     -0.324015
     77 C25         3.0700    4.6770    1.7960 c3        1 MOL      0.085550
     78 C26         2.1220    3.4610    1.8660 c         1 MOL      0.399227
     79 O14         2.2310    2.4730    1.1260 o         1 MOL     -0.531970
     80 C27         2.3700    5.8000    1.0960 c3        1 MOL     -0.206461
     81 C28         3.1700    7.1110    0.9450 c3        1 MOL     -0.343421
     82 C29         2.3810    8.2340    0.3160 c         1 MOL      0.727007
     83 N8          2.2420    8.2070   -0.9640 n         1 MOL     -0.802748
     84 O15         1.9060    9.1500    0.9680 o         1 MOL     -0.616615
     85 H33         4.0690    3.4390    0.3960 hn        1 MOL      0.228518
     86 H34         3.3810    4.8740    2.8210 h1        1 MOL      0.067909
     87 H35         1.3750    6.0590    1.4440 hc        1 MOL      0.115789
     88 H36         2.2540    5.4430    0.0690 hc        1 MOL      0.115789
     89 H37         4.0700    6.9580    0.3400 hc        1 MOL      0.129034
     90 H38         3.5630    7.4500    1.8970 hc        1 MOL      0.129034
     91 H39         2.5450    7.3990   -1.4820 hn        1 MOL      0.366888
     92 H40         1.6830    8.9110   -1.4260 hn        1 MOL      0.366888
     93 N9          1.0400    3.5630    2.6630 n         1 MOL     -0.385538
     94 C30        -0.0570    2.5640    2.7330 c3        1 MOL      0.050133
     95 C31        -1.3340    3.0290    2.0270 c         1 MOL      0.454883
     96 O16        -1.9510    4.0450    2.3410 o         1 MOL     -0.579678
     97 C32        -0.3480    2.2790    4.2350 c3        1 MOL      0.308113
     98 C33        -1.3390    1.1210    4.4620 c3        1 MOL     -0.366425
     99 C34         0.8930    1.8230    5.0200 c3        1 MOL     -0.366425
    100 H41         0.9980    4.4200    3.1980 hn        1 MOL      0.253486
    101 H42         0.2850    1.6170    2.3150 h1        1 MOL      0.124998
    102 H43        -0.7840    3.1650    4.6830 hc        1 MOL     -0.047687
    103 H44        -1.0430    0.1830    3.9780 hc        1 MOL      0.078309
    104 H45        -1.4290    0.9070    5.5230 hc        1 MOL      0.078309
    105 H46        -2.3570    1.3950    4.1770 hc        1 MOL      0.078309
    106 H47         1.5090    2.7210    5.0580 hc        1 MOL      0.078309
    107 H48         0.6700    1.5050    6.0420 hc        1 MOL      0.078309
    108 H49         1.3130    0.9680    4.4900 hc        1 MOL      0.078309
    109 N10        -1.6510    2.2120    1.0260 n         1 MOL     -0.295078
    110 C35        -2.8670    2.4090    0.2330 c3        1 MOL      0.377268
    111 C36        -4.1560    1.8130    0.8830 c         1 MOL      0.330570
    112 O17        -4.0890    0.9030    1.7210 o         1 MOL     -0.494246
    113 C37        -2.5040    2.0350   -1.1670 c3        1 MOL     -0.384321
    114 C38        -3.6740    1.9050   -2.0910 c         1 MOL      0.807084
    115 N11        -4.1200    3.0770   -2.5590 n         1 MOL     -0.866569
    116 O18        -4.2370    0.8430   -2.2610 o         1 MOL     -0.553287
    117 H50        -1.1750    1.3140    1.0440 hn        1 MOL      0.117125
    118 H51        -3.2000    3.4430    0.1920 h1        1 MOL     -0.056512
    119 H52        -1.9740    1.0960   -1.0590 hc        1 MOL      0.122107
    120 H53        -1.7780    2.7050   -1.6240 hc        1 MOL      0.122107
    121 H54        -3.6940    3.9630   -2.3430 hn        1 MOL      0.376652
    122 H55        -4.9670    2.9860   -3.1020 hn        1 MOL      0.376652
    123 N12        -5.3480    2.2700    0.4930 n         1 MOL     -0.211231
    124 C39        -6.6770    1.8390    1.0290 c3        1 MOL      0.007211
    125 C40        -7.0000    0.3730    0.8600 c         1 MOL      0.466489
    126 O19        -7.8100   -0.2100    1.5920 o         1 MOL     -0.559195
    127 C41        -7.8280    2.6190    0.4680 c3        1 MOL     -0.199465
    128 C42        -7.9970    2.7840   -1.0340 ca        1 MOL      0.053939
    129 C43        -8.7180    1.7880   -1.7420 ca        1 MOL     -0.126538
    130 C44        -7.5080    3.8710   -1.7710 ca        1 MOL     -0.126538
    131 C45        -8.9980    1.8520   -3.0910 ca        1 MOL     -0.340312
    132 C46        -7.6950    3.9110   -3.1860 ca        1 MOL     -0.340312
    133 C47        -8.3630    2.9050   -3.8600 ca        1 MOL      0.474435
    134 O20        -8.4820    2.9340   -5.2150 oh        1 MOL     -0.623718
    135 H56        -5.4310    2.8820   -0.3120 hn        1 MOL      0.144042
    136 H57        -6.6800    2.1190    2.0830 h1        1 MOL      0.105047
    137 H58        -7.6200    3.6100    0.8800 hc        1 MOL      0.067826
    138 H59        -8.7640    2.2490    0.8680 hc        1 MOL      0.067826
    139 H60        -9.1110    1.0030   -1.1120 ha        1 MOL      0.132710
    140 H61        -7.0660    4.6990   -1.2190 ha        1 MOL      0.132710
    141 H62        -9.6770    1.1300   -3.5060 ha        1 MOL      0.163578
    142 H63        -7.3040    4.7090   -3.7920 ha        1 MOL      0.163578
    143 H64        -8.9030    2.2160   -5.6930 ho        1 MOL      0.455576
    144 N13        -6.3090   -0.3560   -0.0830 n         1 MOL     -0.083632
    145 C48        -6.4000   -1.7970   -0.1860 c3        1 MOL     -0.197900
    146 C49        -5.5810   -2.5480    0.8940 c         1 MOL      0.469837
    147 O21        -5.9340   -3.5760    1.3750 o         1 MOL     -0.537944
    148 C50        -5.7310   -2.2390   -1.4720 c3        1 MOL      0.020561
    149 C51        -6.6030   -2.0860   -2.7190 c3        1 MOL     -0.248789
    150 C52        -6.0700   -2.8810   -3.9160 c         1 MOL      0.661832
    151 O22        -6.6520   -3.9690   -4.2190 o         1 MOL     -0.728670
    152 O23        -5.0890   -2.4060   -4.5430 o         1 MOL     -0.728670
    153 H65        -5.5810    0.0030   -0.6910 hn        1 MOL      0.097171
    154 H66        -7.4270   -2.1490   -0.1560 h1        1 MOL      0.120034
    155 H67        -5.4640   -3.2920   -1.3470 hc        1 MOL      0.088115
    156 H68        -4.7520   -1.7830   -1.5930 hc        1 MOL      0.088115
    157 H69        -6.6350   -1.0460   -3.0610 hc        1 MOL      0.040226
    158 H70        -7.6100   -2.4500   -2.5130 hc        1 MOL      0.040226
    159 N14        -4.4530   -1.9790    1.3530 n         1 MOL     -0.281495
    160 C53        -3.4900   -2.5910    2.3120 c3        1 MOL     -0.325017
    161 C54        -3.9570   -2.4250    3.7700 c         1 MOL      0.475705
    162 O24        -3.3620   -2.9710    4.7050 o         1 MOL     -0.555267
    163 C55        -2.1570   -1.9400    1.9980 c3        1 MOL      0.070472
    164 C56        -1.5200   -2.2790    0.6800 c3        1 MOL     -0.109957
    165 C57        -0.2930   -1.3830    0.3880 c         1 MOL      0.825545
    166 O25        -0.1160   -0.2220    0.7880 o         1 MOL     -0.744257
    167 O26         0.7520   -1.9330   -0.0680 o         1 MOL     -0.744257
    168 H71        -4.2170   -1.0970    0.9130 hn        1 MOL      0.260063
    169 H72        -3.2560   -3.6250    2.0960 h1        1 MOL      0.184098
    170 H73        -1.4400   -2.1530    2.7890 hc        1 MOL      0.089165
    171 H74        -2.2260   -0.8490    2.0100 hc        1 MOL      0.089165
    172 H75        -2.1900   -2.1470   -0.1770 hc        1 MOL     -0.014484
    173 H76        -1.0730   -3.2680    0.7260 hc        1 MOL     -0.014484
    174 N15        -4.9640   -1.5750    4.0030 n         1 MOL     -0.174104
    175 C58        -5.2320   -0.9350    5.3070 c3        1 MOL     -0.124627
    176 H77        -5.3440    0.1400    5.1670 h1        1 MOL      0.066125
    177 H78        -6.1480   -1.3430    5.7320 h1        1 MOL      0.066125
    178 H79        -4.4000   -1.1270    5.9850 h1        1 MOL      0.066125
    179 H80        -5.3600   -1.2330    3.1300 hn        1 MOL      0.195325
    180 Ca1         2.3250    0.1430    0.1510 Ca        1 MOL      1.697554
    181 O27         4.9030    0.2110    1.1610 oh        1 MOL     -0.857485
    182 H81         5.6980    0.6650    1.4310 ho        1 MOL      0.403259
    183 H82         5.0680   -0.7070    1.3740 ho        1 MOL      0.403259
    184 O28         0.8040    1.3720   -1.9270 oh        1 MOL     -0.857485
    185 O29         2.2970   -0.3520    2.7870 oh        1 MOL     -0.857485
    186 H83         1.1720    0.7500   -2.5430 ho        1 MOL      0.403259
    187 H84         1.8930   -0.8350    3.5080 ho        1 MOL      0.403259
    188 H85         1.3210    2.1640   -2.0290 ho        1 MOL      0.403259
    189 H86         3.1350   -0.0400    3.1350 ho        1 MOL      0.403259
@<TRIPOS>BOND
     1    1    2 1   
     2    1    4 1   
     3    1    5 1   
     4    1    6 1   
     5    2    3 2   
     6    2    7 1   
     7    7    8 1   
     8    7   15 1   
     9    8    9 1   
    10    8   11 1   
    11    8   16 1   
    12    9   10 2   
    13    9   19 1   
    14   11   12 1   
    15   11   17 1   
    16   11   18 1   
    17   12   13 1   
    18   12   14 1   
    19   19   20 1   
    20   19   27 1   
    21   20   21 1   
    22   20   23 1   
    23   20   28 1   
    24   21   22 2   
    25   21   38 1   
    26   23   24 1   
    27   23   25 1   
    28   23   29 1   
    29   24   26 1   
    30   24   30 1   
    31   24   31 1   
    32   25   32 1   
    33   25   33 1   
    34   25   34 1   
    35   26   35 1   
    36   26   36 1   
    37   26   37 1   
    38   38   39 1   
    39   38   46 1   
    40   39   40 1   
    41   39   42 1   
    42   39   47 1   
    43   40   41 2   
    44   40   50 1   
    45   42   43 1   
    46   42   48 1   
    47   42   49 1   
    48   43   44 1   
    49   43   45 1   
    50   50   51 1   
    51   50   54 1   
    52   51   52 1   
    53   51   55 1   
    54   51   56 1   
    55   52   53 2   
    56   52   57 1   
    57   57   58 1   
    58   57   65 1   
    59   58   59 1   
    60   58   61 1   
    61   58   66 1   
    62   59   60 2   
    63   59   69 1   
    64   61   62 1   
    65   61   67 1   
    66   61   68 1   
    67   62   63 1   
    68   62   64 1   
    69   69   70 1   
    70   69   73 1   
    71   70   71 1   
    72   70   74 1   
    73   70   75 1   
    74   71   72 2   
    75   71   76 1   
    76   76   77 1   
    77   76   85 1   
    78   77   78 1   
    79   77   80 1   
    80   77   86 1   
    81   78   79 2   
    82   78   93 1   
    83   80   81 1   
    84   80   87 1   
    85   80   88 1   
    86   81   82 1   
    87   81   89 1   
    88   81   90 1   
    89   82   83 1   
    90   82   84 2   
    91   83   91 1   
    92   83   92 1   
    93   93   94 1   
    94   93  100 1   
    95   94   95 1   
    96   94   97 1   
    97   94  101 1   
    98   95   96 2   
    99   95  109 1   
   100   97   98 1   
   101   97   99 1   
   102   97  102 1   
   103   98  103 1   
   104   98  104 1   
   105   98  105 1   
   106   99  106 1   
   107   99  107 1   
   108   99  108 1   
   109  109  110 1   
   110  109  117 1   
   111  110  111 1   
   112  110  113 1   
   113  110  118 1   
   114  111  112 2   
   115  111  123 1   
   116  113  114 1   
   117  113  119 1   
   118  113  120 1   
   119  114  115 1   
   120  114  116 2   
   121  115  121 1   
   122  115  122 1   
   123  123  124 1   
   124  123  135 1   
   125  124  125 1   
   126  124  127 1   
   127  124  136 1   
   128  125  126 2   
   129  125  144 1   
   130  127  128 1   
   131  127  137 1   
   132  127  138 1   
   133  128  129 ar  
   134  128  130 ar  
   135  129  131 ar  
   136  129  139 1   
   137  130  132 ar  
   138  130  140 1   
   139  131  133 ar  
   140  131  141 1   
   141  132  133 ar  
   142  132  142 1   
   143  133  134 1   
   144  134  143 1   
   145  144  145 1   
   146  144  153 1   
   147  145  146 1   
   148  145  148 1   
   149  145  154 1   
   150  146  147 2   
   151  146  159 1   
   152  148  149 1   
   153  148  155 1   
   154  148  156 1   
   155  149  150 1   
   156  149  157 1   
   157  149  158 1   
   158  150  151 1   
   159  150  152 1   
   160  159  160 1   
   161  159  168 1   
   162  160  161 1   
   163  160  163 1   
   164  160  169 1   
   165  161  162 2   
   166  161  174 1   
   167  163  164 1   
   168  163  170 1   
   169  163  171 1   
   170  164  165 1   
   171  164  172 1   
   172  164  173 1   
   173  165  166 1   
   174  165  167 1   
   175  174  175 1   
   176  174  179 1   
   177  175  176 1   
   178  175  177 1   
   179  175  178 1   
   180  181  182 1   
   181  181  183 1   
   182  184  186 1   
   183  184  188 1   
   184  185  187 1   
   185  185  189 1   
@<TRIPOS>SUBSTRUCTURE
     1 MOL         1 TEMP              0 ****  ****    0 ROOT
