@<TRIPOS>MOLECULE
MOL
  186   183     1     0     0
SMALL
resp


@<TRIPOS>ATOM
      1 C1          0.5070   -2.3510    6.2090 c3        1 MOL     -0.257475
      2 C2          0.8500   -2.1500    4.6630 c         1 MOL      0.813943
      3 O1          0.0240   -2.4200    3.8270 o         1 MOL     -0.638678
      4 H1         -0.5590   -2.5510    6.3210 hc        1 MOL      0.055733
      5 H2          1.0770   -3.1930    6.6010 hc        1 MOL      0.055733
      6 H3          0.7660   -1.4470    6.7600 hc        1 MOL      0.055733
      7 N1          2.0300   -1.6610    4.3020 n         1 MOL     -0.816548
      8 C3          2.5490   -1.5840    2.9270 c3        1 MOL      0.319267
      9 C4          2.9330   -2.9940    2.4620 c         1 MOL      0.727343
     10 O2          3.7520   -3.6020    3.2100 o         1 MOL     -0.627123
     11 C5          3.7310   -0.6080    2.8280 c3        1 MOL     -0.221404
     12 C6          4.3160   -0.5730    1.4530 c         1 MOL      0.555709
     13 O3          5.5290   -0.2470    1.4960 o         1 MOL     -0.607548
     14 O4          3.8000   -0.9900    0.4260 o         1 MOL     -0.607548
     15 H4          2.6670   -1.5440    5.0770 hn        1 MOL      0.355245
     16 H5          1.7740   -1.2840    2.2270 h1        1 MOL     -0.021543
     17 H6          4.5500   -0.8680    3.5060 hc        1 MOL      0.058675
     18 H7          3.3520    0.3960    3.0320 hc        1 MOL      0.058675
     19 N2          2.3180   -3.5960    1.4600 n         1 MOL     -0.518343
     20 C7          2.6270   -4.9350    1.0380 c3        1 MOL     -0.126420
     21 C8          3.6390   -4.8340   -0.1320 c         1 MOL      0.439594
     22 O5          4.6750   -5.4880   -0.1010 o         1 MOL     -0.548756
     23 C9          1.4220   -5.7300    0.6640 c3        1 MOL      0.288529
     24 C10         0.1240   -5.6390    1.5270 c3        1 MOL      0.093909
     25 C11         1.8440   -7.2140    0.5260 c3        1 MOL     -0.273526
     26 C12        -1.1230   -6.1960    0.8850 c3        1 MOL     -0.113797
     27 H8          1.8260   -2.9460    0.8610 hn        1 MOL      0.226819
     28 H9          3.1960   -5.3970    1.8460 h1        1 MOL      0.121206
     29 H10         1.0700   -5.4170   -0.3210 hc        1 MOL     -0.021729
     30 H11        -0.1490   -4.6060    1.7620 hc        1 MOL     -0.014977
     31 H12         0.2860   -6.1520    2.4770 hc        1 MOL     -0.014977
     32 H13         0.9770   -7.8760    0.5450 hc        1 MOL      0.044094
     33 H14         2.2570   -7.3330   -0.4750 hc        1 MOL      0.044094
     34 H15         2.4890   -7.4660    1.3790 hc        1 MOL      0.044094
     35 H16        -1.2150   -7.2820    0.9380 hc        1 MOL      0.014966
     36 H17        -1.9700   -5.8750    1.4940 hc        1 MOL      0.014966
     37 H18        -1.2410   -5.9120   -0.1560 hc        1 MOL      0.014966
     38 N3          3.4160   -4.0780   -1.2250 n         1 MOL     -0.242483
     39 C13         4.2760   -4.2780   -2.3800 c3        1 MOL     -0.008002
     40 C14         5.6990   -3.6370   -2.0860 c         1 MOL      0.405467
     41 O6          6.6390   -4.0430   -2.7440 o         1 MOL     -0.574073
     42 C15         3.8120   -3.5880   -3.6740 c3        1 MOL     -0.310034
     43 C16         3.4250   -2.1080   -3.6460 c         1 MOL      0.807466
     44 O7          3.7420   -1.2490   -2.7600 o         1 MOL     -0.689454
     45 O8          2.7100   -1.8200   -4.5950 o         1 MOL     -0.689454
     46 H19         2.6600   -3.4220   -1.2040 hn        1 MOL      0.226188
     47 H20         4.2940   -5.3300   -2.6760 h1        1 MOL      0.100858
     48 H21         2.9600   -4.1900   -4.0120 hc        1 MOL      0.078224
     49 H22         4.5450   -3.6330   -4.4720 hc        1 MOL      0.078224
     50 N4          5.8010   -2.7340   -1.0990 n         1 MOL     -0.053900
     51 C17         7.0250   -2.1930   -0.5110 c3        1 MOL     -0.307538
     52 C18         7.4920   -0.7680   -0.8540 c         1 MOL      0.658328
     53 O9          8.6210   -0.4980   -0.5020 o         1 MOL     -0.627015
     54 H23         4.9310   -2.5080   -0.6430 hn        1 MOL      0.228558
     55 H24         7.8600   -2.8320   -0.7690 h1        1 MOL      0.116724
     56 H25         6.9200   -2.1950    0.5760 h1        1 MOL      0.116724
     57 N5          6.6760    0.1090   -1.4690 n         1 MOL     -0.374067
     58 C19         7.1050    1.4870   -1.8880 c3        1 MOL      0.056915
     59 C20         7.2890    2.4440   -0.6810 c         1 MOL      0.374060
     60 O10         7.5600    3.6450   -0.9120 o         1 MOL     -0.557663
     61 C21         6.0550    2.0000   -2.8810 c3        1 MOL     -0.223730
     62 C22         4.5960    1.9400   -2.3930 c         1 MOL      0.840022
     63 O11         3.6860    1.8840   -3.2070 o         1 MOL     -0.764533
     64 O12         4.2630    1.8120   -1.1930 o         1 MOL     -0.764533
     65 H26         5.6850   -0.1190   -1.5010 hn        1 MOL      0.109134
     66 H27         8.1030    1.4900   -2.3210 h1        1 MOL      0.071083
     67 H28         6.0770    1.4090   -3.7870 hc        1 MOL      0.060083
     68 H29         6.2450    3.0250   -3.1920 hc        1 MOL      0.060083
     69 N6          6.9950    2.0160    0.5470 n         1 MOL     -0.099937
     70 C23         6.9780    2.8160    1.7200 c3        1 MOL     -0.168296
     71 C24         5.7860    3.6830    1.9320 c         1 MOL      0.708789
     72 O13         5.8440    4.7450    2.4880 o         1 MOL     -0.637293
     73 H30         6.7530    1.0410    0.6250 hn        1 MOL      0.235182
     74 H31         7.7220    3.6030    1.5850 h1        1 MOL      0.058472
     75 H32         7.1400    2.2010    2.6170 h1        1 MOL      0.058472
     76 N7          4.5820    3.2720    1.4630 n         1 MOL     -0.498281
     77 C25         3.2940    4.0110    1.4350 c3        1 MOL      0.144970
     78 C26         2.1620    2.9890    1.4330 c         1 MOL      0.521932
     79 O14         2.3020    1.8740    0.9460 o         1 MOL     -0.590720
     80 C27         3.1490    4.9740    0.2470 c3        1 MOL     -0.087691
     81 C28         3.9370    6.2590    0.6030 c3        1 MOL     -0.149449
     82 C29         3.5910    7.4580   -0.3050 c         1 MOL      0.599319
     83 N8          4.2310    7.4340   -1.4900 n         1 MOL     -0.826992
     84 O15         2.8140    8.3400   -0.0090 o         1 MOL     -0.562203
     85 H33         4.6010    2.4990    0.8140 hn        1 MOL      0.262505
     86 H34         3.2120    4.5480    2.3910 h1        1 MOL      0.033624
     87 H35         2.1270    5.2890    0.0510 hc        1 MOL      0.070292
     88 H36         3.5790    4.5490   -0.6630 hc        1 MOL      0.070292
     89 H37         5.0100    6.0220    0.5870 hc        1 MOL      0.070715
     90 H38         3.5100    6.5770    1.5550 hc        1 MOL      0.070715
     91 H39         4.9430    6.7710   -1.7740 hn        1 MOL      0.366806
     92 H40         3.9550    8.2030   -2.0780 hn        1 MOL      0.366806
     93 N9          1.0430    3.4020    1.9550 n         1 MOL     -0.459105
     94 C30        -0.1610    2.5370    2.0730 c3        1 MOL      0.044480
     95 C31        -1.3240    2.8980    1.1080 c         1 MOL      0.373140
     96 O16        -1.9330    3.9330    1.2580 o         1 MOL     -0.560277
     97 C32        -0.5530    2.4200    3.5220 c3        1 MOL      0.334204
     98 C33        -1.9900    1.8890    3.6840 c3        1 MOL     -0.372801
     99 C34         0.4100    1.5870    4.3010 c3        1 MOL     -0.372801
    100 H41         0.9580    4.3290    2.3550 hn        1 MOL      0.262114
    101 H42         0.1370    1.5250    1.8050 h1        1 MOL      0.103157
    102 H43        -0.5170    3.4070    3.9760 hc        1 MOL     -0.042726
    103 H44        -2.1470    1.6330    4.7320 hc        1 MOL      0.078611
    104 H45        -2.6880    2.6640    3.3680 hc        1 MOL      0.078611
    105 H46        -2.0250    0.9400    3.1510 hc        1 MOL      0.078611
    106 H47         1.3950    1.9570    4.0190 hc        1 MOL      0.078611
    107 H48         0.2500    1.6960    5.3770 hc        1 MOL      0.078611
    108 H49         0.3750    0.5440    4.0040 hc        1 MOL      0.078611
    109 N10        -1.7940    1.9370    0.3140 n         1 MOL     -0.110813
    110 C35        -2.8660    2.1700   -0.6520 c3        1 MOL     -0.019435
    111 C36        -4.2300    1.9000   -0.0380 c         1 MOL      0.453762
    112 O17        -4.3030    1.0780    0.8540 o         1 MOL     -0.347319
    113 C37        -2.6790    1.2760   -1.8380 c3        1 MOL     -0.354192
    114 C38        -3.4800    1.6990   -3.0480 c         1 MOL      0.753592
    115 N11        -3.0530    2.6920   -3.7930 n         1 MOL     -0.796114
    116 O18        -4.6550    1.3330   -3.0480 o         1 MOL     -0.560868
    117 H50        -1.3120    1.0390    0.2960 hn        1 MOL      0.306288
    118 H51        -2.8380    3.2070   -0.9980 h1        1 MOL      0.060312
    119 H52        -3.0240    0.2510   -1.6820 hc        1 MOL      0.117288
    120 H53        -1.6570    1.2440   -2.2120 hc        1 MOL      0.117288
    121 H54        -2.0830    2.9790   -3.7380 hn        1 MOL      0.366014
    122 H55        -3.7490    3.0970   -4.4050 hn        1 MOL      0.366014
    123 N12        -5.3520    2.5130   -0.5170 n         1 MOL     -0.490256
    124 C39        -6.7460    2.0920   -0.1560 c3        1 MOL      0.104741
    125 C40        -6.8930    0.5590   -0.1200 c         1 MOL      0.502861
    126 O19        -7.3890   -0.0170    0.8880 o         1 MOL     -0.531787
    127 C41        -7.8100    2.5960   -1.1530 c3        1 MOL     -0.022650
    128 C42        -9.1570    2.2050   -0.6840 ca        1 MOL      0.009157
    129 C43        -9.6830    2.8580    0.4450 ca        1 MOL     -0.199401
    130 C44        -9.7840    1.0710   -1.2590 ca        1 MOL     -0.199401
    131 C45       -10.9390    2.3770    0.9530 ca        1 MOL     -0.230724
    132 C46       -11.0140    0.5970   -0.6860 ca        1 MOL     -0.230724
    133 C47       -11.5900    1.3150    0.4120 ca        1 MOL      0.357541
    134 O20       -12.8030    0.9520    0.9340 oh        1 MOL     -0.569709
    135 H56        -5.2810    3.3810   -1.0240 hn        1 MOL      0.276135
    136 H57        -6.9710    2.4840    0.8290 h1        1 MOL      0.063380
    137 H58        -7.6610    2.2710   -2.1790 hc        1 MOL      0.028900
    138 H59        -7.8360    3.6870   -1.1710 hc        1 MOL      0.028900
    139 H60        -9.2270    3.7370    0.8650 ha        1 MOL      0.152822
    140 H61        -9.2180    0.4750   -1.9560 ha        1 MOL      0.152822
    141 H62       -11.4690    2.8070    1.7930 ha        1 MOL      0.133320
    142 H63       -11.5050   -0.2640   -1.0940 ha        1 MOL      0.133320
    143 H64       -13.2790    0.2620    0.4580 ho        1 MOL      0.396849
    144 N13        -6.3950   -0.2360   -1.0830 n         1 MOL     -0.170594
    145 C48        -6.3060   -1.6860   -1.0520 c3        1 MOL      0.020635
    146 C49        -5.5910   -2.3030    0.1360 c         1 MOL      0.382091
    147 O21        -6.0430   -3.2200    0.7650 o         1 MOL     -0.529691
    148 C50        -5.5930   -2.1810   -2.3340 c3        1 MOL      0.199389
    149 C51        -6.4190   -2.2000   -3.6280 c3        1 MOL     -0.182007
    150 C52        -5.5620   -2.0170   -4.8870 c         1 MOL      0.654251
    151 O22        -5.9420   -1.1830   -5.7430 o         1 MOL     -0.722254
    152 O23        -4.4120   -2.4600   -4.8900 o         1 MOL     -0.722254
    153 H65        -6.0500    0.3590   -1.8300 hn        1 MOL      0.224321
    154 H66        -7.2700   -2.1890   -1.0440 h1        1 MOL      0.021658
    155 H67        -5.3510   -3.2420   -2.2200 hc        1 MOL     -0.004932
    156 H68        -4.6690   -1.6090   -2.4640 hc        1 MOL     -0.004932
    157 H69        -7.1350   -1.3760   -3.6080 hc        1 MOL     -0.019541
    158 H70        -7.0460   -3.0850   -3.6470 hc        1 MOL     -0.019541
    159 N14        -4.4540   -1.7810    0.4690 n         1 MOL     -0.033213
    160 C53        -3.5190   -2.3390    1.4460 c3        1 MOL     -0.079393
    161 C54        -4.0550   -2.0270    2.8520 c         1 MOL      0.426817
    162 O24        -3.9190   -2.8020    3.8080 o         1 MOL     -0.571341
    163 C55        -2.1100   -1.6860    1.2490 c3        1 MOL      0.086670
    164 C56        -1.4770   -2.0830   -0.0780 c3        1 MOL     -0.064424
    165 C57        -0.1150   -1.3460   -0.1900 c         1 MOL      0.758890
    166 O25         0.7960   -1.9830   -0.7800 o         1 MOL     -0.805269
    167 O26         0.0640   -0.1480    0.0140 o         1 MOL     -0.805269
    168 H71        -4.1550   -0.9350    0.0040 hn        1 MOL     -0.222846
    169 H72        -3.4300   -3.4170    1.3630 h1        1 MOL      0.100619
    170 H73        -1.3630   -1.9840    1.9920 hc        1 MOL      0.046836
    171 H74        -2.1620   -0.6160    1.4370 hc        1 MOL      0.046836
    172 H75        -2.1180   -1.7880   -0.9160 hc        1 MOL      0.028015
    173 H76        -1.3240   -3.1670   -0.1310 hc        1 MOL      0.028015
    174 N15        -4.8080   -0.9250    2.9540 n         1 MOL      0.056265
    175 C58        -5.6280   -0.5330    4.1270 c3        1 MOL     -0.354053
    176 H77        -6.6310   -0.9470    4.0240 h1        1 MOL      0.113537
    177 H78        -5.1700   -0.9190    5.0380 h1        1 MOL      0.113537
    178 H79        -5.6890    0.5530    4.1840 h1        1 MOL      0.113537
    179 H80        -4.9030   -0.4220    2.0750 hn        1 MOL      0.029683
    180 Ca1         2.2990    0.1570   -1.1910 Ca        1 MOL      1.749102
    181 O27         1.1100    0.0500   -3.7800 oh        1 MOL     -0.810429
    182 H81         0.2280    0.0320   -4.1560 ho        1 MOL      0.385037
    183 H82         1.6280   -0.5270   -4.3520 ho        1 MOL      0.385037
    184 O28         0.9930    2.3570   -1.9600 oh        1 MOL     -0.810429
    185 H83         1.1880    3.2860   -2.0470 ho        1 MOL      0.385037
    186 H84         0.6530    2.0930   -2.8130 ho        1 MOL      0.385037
@<TRIPOS>BOND
     1    1    2 1   
     2    1    4 1   
     3    1    5 1   
     4    1    6 1   
     5    2    3 2   
     6    2    7 1   
     7    7    8 1   
     8    7   15 1   
     9    8    9 1   
    10    8   11 1   
    11    8   16 1   
    12    9   10 2   
    13    9   19 1   
    14   11   12 1   
    15   11   17 1   
    16   11   18 1   
    17   12   13 1   
    18   12   14 1   
    19   19   20 1   
    20   19   27 1   
    21   20   21 1   
    22   20   23 1   
    23   20   28 1   
    24   21   22 2   
    25   21   38 1   
    26   23   24 1   
    27   23   25 1   
    28   23   29 1   
    29   24   26 1   
    30   24   30 1   
    31   24   31 1   
    32   25   32 1   
    33   25   33 1   
    34   25   34 1   
    35   26   35 1   
    36   26   36 1   
    37   26   37 1   
    38   38   39 1   
    39   38   46 1   
    40   39   40 1   
    41   39   42 1   
    42   39   47 1   
    43   40   41 2   
    44   40   50 1   
    45   42   43 1   
    46   42   48 1   
    47   42   49 1   
    48   43   44 1   
    49   43   45 1   
    50   50   51 1   
    51   50   54 1   
    52   51   52 1   
    53   51   55 1   
    54   51   56 1   
    55   52   53 2   
    56   52   57 1   
    57   57   58 1   
    58   57   65 1   
    59   58   59 1   
    60   58   61 1   
    61   58   66 1   
    62   59   60 2   
    63   59   69 1   
    64   61   62 1   
    65   61   67 1   
    66   61   68 1   
    67   62   63 1   
    68   62   64 1   
    69   69   70 1   
    70   69   73 1   
    71   70   71 1   
    72   70   74 1   
    73   70   75 1   
    74   71   72 2   
    75   71   76 1   
    76   76   77 1   
    77   76   85 1   
    78   77   78 1   
    79   77   80 1   
    80   77   86 1   
    81   78   79 2   
    82   78   93 1   
    83   80   81 1   
    84   80   87 1   
    85   80   88 1   
    86   81   82 1   
    87   81   89 1   
    88   81   90 1   
    89   82   83 1   
    90   82   84 2   
    91   83   91 1   
    92   83   92 1   
    93   93   94 1   
    94   93  100 1   
    95   94   95 1   
    96   94   97 1   
    97   94  101 1   
    98   95   96 2   
    99   95  109 1   
   100   97   98 1   
   101   97   99 1   
   102   97  102 1   
   103   98  103 1   
   104   98  104 1   
   105   98  105 1   
   106   99  106 1   
   107   99  107 1   
   108   99  108 1   
   109  109  110 1   
   110  109  117 1   
   111  110  111 1   
   112  110  113 1   
   113  110  118 1   
   114  111  112 2   
   115  111  123 1   
   116  113  114 1   
   117  113  119 1   
   118  113  120 1   
   119  114  115 1   
   120  114  116 2   
   121  115  121 1   
   122  115  122 1   
   123  123  124 1   
   124  123  135 1   
   125  124  125 1   
   126  124  127 1   
   127  124  136 1   
   128  125  126 2   
   129  125  144 1   
   130  127  128 1   
   131  127  137 1   
   132  127  138 1   
   133  128  129 ar  
   134  128  130 ar  
   135  129  131 ar  
   136  129  139 1   
   137  130  132 ar  
   138  130  140 1   
   139  131  133 ar  
   140  131  141 1   
   141  132  133 ar  
   142  132  142 1   
   143  133  134 1   
   144  134  143 1   
   145  144  145 1   
   146  144  153 1   
   147  145  146 1   
   148  145  148 1   
   149  145  154 1   
   150  146  147 2   
   151  146  159 1   
   152  148  149 1   
   153  148  155 1   
   154  148  156 1   
   155  149  150 1   
   156  149  157 1   
   157  149  158 1   
   158  150  151 1   
   159  150  152 1   
   160  159  160 1   
   161  159  168 1   
   162  160  161 1   
   163  160  163 1   
   164  160  169 1   
   165  161  162 2   
   166  161  174 1   
   167  163  164 1   
   168  163  170 1   
   169  163  171 1   
   170  164  165 1   
   171  164  172 1   
   172  164  173 1   
   173  165  166 1   
   174  165  167 1   
   175  174  175 1   
   176  174  179 1   
   177  175  176 1   
   178  175  177 1   
   179  175  178 1   
   180  181  182 1   
   181  181  183 1   
   182  184  185 1   
   183  184  186 1   
@<TRIPOS>SUBSTRUCTURE
     1 MOL         1 TEMP              0 ****  ****    0 ROOT
