@<TRIPOS>MOLECULE
MOL
  183   181     1     0     0
SMALL
resp


@<TRIPOS>ATOM
      1 C1         -0.3650    2.2680    6.2820 c3        1 MOL     -0.345004
      2 C2         -0.4790    2.0830    4.7220 c         1 MOL      0.780978
      3 O1          0.2980    2.5940    3.9250 o         1 MOL     -0.575317
      4 H1         -1.3630    2.3060    6.7170 hc        1 MOL      0.074973
      5 H2          0.1850    1.4300    6.7090 hc        1 MOL      0.074973
      6 H3          0.1610    3.1980    6.5000 hc        1 MOL      0.074973
      7 N1         -1.5990    1.4980    4.3210 n         1 MOL     -0.615050
      8 C3         -2.2010    1.5460    2.9390 c3        1 MOL      0.164377
      9 C4         -2.6080    2.9710    2.5440 c         1 MOL      0.563755
     10 O2         -3.0820    3.7570    3.3400 o         1 MOL     -0.583772
     11 C5         -3.3880    0.6050    2.9810 c3        1 MOL     -0.230729
     12 C6         -4.1090    0.3000    1.7380 c         1 MOL      0.850907
     13 O3         -5.2560   -0.1970    1.7780 o         1 MOL     -0.697305
     14 O4         -3.6370    0.6620    0.6030 o         1 MOL     -0.697305
     15 H4         -2.2570    1.2690    5.0480 hn        1 MOL      0.296073
     16 H5         -1.4060    1.2100    2.2820 h1        1 MOL      0.058167
     17 H6         -4.0680    0.8490    3.7910 hc        1 MOL      0.037568
     18 H7         -3.0210   -0.3990    3.1900 hc        1 MOL      0.037568
     19 N2         -2.3970    3.2990    1.2390 n         1 MOL     -0.239958
     20 C7         -2.6670    4.6540    0.6850 c3        1 MOL      0.043364
     21 C8         -3.8720    4.7480   -0.2600 c         1 MOL      0.525886
     22 O5         -4.4830    5.8110   -0.3620 o         1 MOL     -0.601792
     23 C9         -1.3530    5.0690    0.0400 c3        1 MOL      0.379304
     24 C10        -0.0440    5.1050    0.8820 c3        1 MOL     -0.039585
     25 C11        -1.4770    6.4990   -0.6550 c3        1 MOL     -0.271790
     26 C12        -0.2290    6.0470    2.1040 c3        1 MOL     -0.074033
     27 H8         -2.2910    2.5800    0.5420 hn        1 MOL     -0.026437
     28 H9         -3.0140    5.3260    1.4750 h1        1 MOL      0.026141
     29 H10        -1.1590    4.4090   -0.8040 hc        1 MOL     -0.053300
     30 H11         0.8160    5.3920    0.2870 hc        1 MOL      0.014218
     31 H12         0.1200    4.1050    1.2870 hc        1 MOL      0.014218
     32 H13        -1.8750    6.3390   -1.6610 hc        1 MOL      0.038665
     33 H14        -2.1340    7.1840   -0.1260 hc        1 MOL      0.038665
     34 H15        -0.4770    6.9280   -0.7750 hc        1 MOL      0.038665
     35 H16        -0.8700    5.6320    2.8850 hc        1 MOL     -0.003958
     36 H17         0.7120    6.4420    2.4830 hc        1 MOL     -0.003958
     37 H18        -0.7730    6.9230    1.7460 hc        1 MOL     -0.003958
     38 N3         -4.3720    3.6280   -0.7840 n         1 MOL     -0.282899
     39 C13        -5.4450    3.5940   -1.7520 c3        1 MOL     -0.023884
     40 C14        -6.5810    2.5930   -1.4840 c         1 MOL      0.395623
     41 O6         -7.2910    2.1220   -2.3920 o         1 MOL     -0.430574
     42 C15        -4.7540    3.3680   -3.1740 c3        1 MOL     -0.093896
     43 C16        -3.8260    2.1480   -3.4440 c         1 MOL      0.765012
     44 O7         -3.6720    1.3730   -2.4310 o         1 MOL     -0.693102
     45 O8         -3.1670    1.9250   -4.4430 o         1 MOL     -0.693102
     46 H19        -3.9820    2.7500   -0.4740 hn        1 MOL      0.183029
     47 H20        -5.8930    4.5820   -1.7650 h1        1 MOL      0.095631
     48 H21        -4.2390    4.2780   -3.4770 hc        1 MOL      0.001002
     49 H22        -5.5780    3.2670   -3.8850 hc        1 MOL      0.001002
     50 N4         -6.8110    2.3030   -0.1460 n         1 MOL     -0.299223
     51 C17        -7.8700    1.5190    0.4600 c3        1 MOL     -0.081335
     52 C18        -8.1910    0.1960   -0.2780 c         1 MOL      0.391497
     53 O9         -9.3440    0.0130   -0.7110 o         1 MOL     -0.571289
     54 H23        -6.0960    2.6380    0.4950 hn        1 MOL      0.217412
     55 H24        -8.7680    2.1230    0.6000 h1        1 MOL      0.068176
     56 H25        -7.3900    1.2850    1.4110 h1        1 MOL      0.068176
     57 N5         -7.2560   -0.7280   -0.3180 n         1 MOL     -0.171202
     58 C19        -7.4540   -2.1070   -0.7980 c3        1 MOL      0.089429
     59 C20        -7.0150   -3.1870    0.2180 c         1 MOL      0.375779
     60 O10        -7.2610   -4.3730    0.0290 o         1 MOL     -0.552823
     61 C21        -6.7260   -2.3550   -2.1610 c3        1 MOL     -0.096507
     62 C22        -5.2710   -2.0010   -2.0500 c         1 MOL      0.672528
     63 O11        -4.6380   -1.5130   -3.0210 o         1 MOL     -0.706386
     64 O12        -4.6560   -2.0970   -0.9810 o         1 MOL     -0.706386
     65 H26        -6.3320   -0.4670   -0.0050 hn        1 MOL      0.190160
     66 H27        -8.5010   -2.3890   -0.9140 h1        1 MOL      0.052572
     67 H28        -7.1400   -1.6180   -2.8440 hc        1 MOL      0.022883
     68 H29        -6.8980   -3.3670   -2.5170 hc        1 MOL      0.022883
     69 N6         -6.4910   -2.7520    1.3380 n         1 MOL     -0.181841
     70 C23        -6.1430   -3.6030    2.4740 c3        1 MOL     -0.225213
     71 C24        -4.7600   -4.3030    2.3750 c         1 MOL      0.622357
     72 O13        -4.4110   -5.1340    3.1210 o         1 MOL     -0.587650
     73 H30        -6.3120   -1.7620    1.4410 hn        1 MOL      0.175030
     74 H31        -6.8490   -4.4340    2.4270 h1        1 MOL      0.091085
     75 H32        -6.2310   -2.9670    3.3600 h1        1 MOL      0.091085
     76 N7         -3.9570   -3.9320    1.3380 n         1 MOL     -0.230843
     77 C25        -2.6300   -4.4460    1.2220 c3        1 MOL     -0.047962
     78 C26        -1.6340   -3.2420    1.2450 c         1 MOL      0.611042
     79 O14        -1.9720   -2.1780    0.6720 o         1 MOL     -0.708059
     80 C27        -2.5620   -5.3880    0.0630 c3        1 MOL     -0.029718
     81 C28        -2.9620   -4.8510   -1.2750 c3        1 MOL     -0.330942
     82 C29        -1.7410   -4.1630   -1.9870 c         1 MOL      0.634521
     83 N8         -0.7100   -4.9270   -2.3890 n         1 MOL     -0.767073
     84 O15        -1.6960   -2.9140   -2.0080 o         1 MOL     -0.567609
     85 H33        -4.2220   -3.2860    0.6130 hn        1 MOL      0.207683
     86 H34        -2.4090   -5.0190    2.1150 h1        1 MOL      0.034859
     87 H35        -3.2190   -6.2100    0.3490 hc        1 MOL      0.026595
     88 H36        -1.5640   -5.8090   -0.0160 hc        1 MOL      0.026595
     89 H37        -3.9190   -4.3320   -1.2500 hc        1 MOL      0.119174
     90 H38        -3.2100   -5.7610   -1.8280 hc        1 MOL      0.119174
     91 H39        -0.6550   -5.9400   -2.3290 hn        1 MOL      0.366454
     92 H40         0.1250   -4.4080   -2.6170 hn        1 MOL      0.366454
     93 N9         -0.4610   -3.4040    1.9190 n         1 MOL     -0.446815
     94 C30         0.6060   -2.4140    1.9680 c3        1 MOL      0.265978
     95 C31         1.7810   -2.8750    1.1820 c         1 MOL      0.252155
     96 O16         2.4740   -3.8360    1.5860 o         1 MOL     -0.552872
     97 C32         1.1430   -2.0650    3.3760 c3        1 MOL      0.269369
     98 C33         2.1610   -0.8880    3.5010 c3        1 MOL     -0.307996
     99 C34        -0.0260   -1.8620    4.2780 c3        1 MOL     -0.307996
    100 H41        -0.3660   -4.3450    2.2790 hn        1 MOL      0.273328
    101 H42         0.2970   -1.5170    1.4350 h1        1 MOL      0.061020
    102 H43         1.6640   -2.9820    3.6730 hc        1 MOL     -0.040315
    103 H44         3.0250   -0.9970    2.8420 hc        1 MOL      0.054105
    104 H45         1.7090    0.0720    3.2560 hc        1 MOL      0.054105
    105 H46         2.6610   -0.8580    4.4780 hc        1 MOL      0.054105
    106 H47        -0.7820   -1.3470    3.6850 hc        1 MOL      0.054105
    107 H48        -0.4160   -2.8730    4.4400 hc        1 MOL      0.054105
    108 H49         0.1940   -1.4010    5.2390 hc        1 MOL      0.054105
    109 N10         2.0630   -2.2310    0.0150 n         1 MOL     -0.021248
    110 C35         3.2390   -2.4970   -0.8170 c3        1 MOL      0.020121
    111 C36         4.4980   -1.9510   -0.0790 c         1 MOL      0.342583
    112 O17         4.4540   -1.1320    0.8060 o         1 MOL     -0.225972
    113 C37         3.0430   -2.0040   -2.1930 c3        1 MOL     -0.339500
    114 C38         1.9060   -2.6810   -2.9970 c         1 MOL      0.701672
    115 N11         0.7760   -2.0590   -3.1570 n         1 MOL     -0.803169
    116 O18         1.9920   -3.8490   -3.3590 o         1 MOL     -0.631758
    117 H50         1.5190   -1.4040   -0.2070 hn        1 MOL     -0.000014
    118 H51         3.3470   -3.5700   -0.9890 h1        1 MOL      0.070376
    119 H52         3.9090   -2.2610   -2.7860 hc        1 MOL      0.138615
    120 H53         2.9140   -0.9120   -2.1960 hc        1 MOL      0.138615
    121 H54         0.6190   -1.1150   -2.8210 hn        1 MOL      0.389132
    122 H55         0.1080   -2.5400   -3.7400 hn        1 MOL      0.389132
    123 N12         5.7020   -2.2930   -0.5800 n         1 MOL     -0.511906
    124 C39         6.9840   -1.6550   -0.2230 c3        1 MOL      0.105815
    125 C40         7.0260   -0.1200   -0.2570 c         1 MOL      0.582919
    126 O19         7.5850    0.5560    0.5640 o         1 MOL     -0.481908
    127 C41         8.2080   -2.3550   -0.9350 c3        1 MOL     -0.241410
    128 C42         9.4890   -1.7250   -0.4870 ca        1 MOL      0.031281
    129 C43         9.9140   -1.9980    0.8400 ca        1 MOL     -0.186977
    130 C44        10.2950   -0.9010   -1.2880 ca        1 MOL     -0.186977
    131 C45        11.1360   -1.5230    1.4070 ca        1 MOL     -0.200132
    132 C46        11.5380   -0.4680   -0.7280 ca        1 MOL     -0.200132
    133 C47        11.9580   -0.6710    0.5660 ca        1 MOL      0.267833
    134 O20        13.1300   -0.1880    1.0580 oh        1 MOL     -0.444738
    135 H56         5.7270   -2.8450   -1.4160 hn        1 MOL      0.289811
    136 H57         7.0890   -1.8690    0.8430 h1        1 MOL      0.093010
    137 H58         8.1820   -2.3700   -2.0280 hc        1 MOL      0.097534
    138 H59         8.2240   -3.3750   -0.5670 hc        1 MOL      0.097534
    139 H60         9.2850   -2.6500    1.4400 ha        1 MOL      0.142734
    140 H61        10.0740   -0.8150   -2.3360 ha        1 MOL      0.142734
    141 H62        11.6040   -1.8360    2.3350 ha        1 MOL      0.123827
    142 H63        12.2250    0.1000   -1.3410 ha        1 MOL      0.123827
    143 H64        13.5630    0.2730    0.3380 ho        1 MOL      0.327609
    144 N13         6.3320    0.4070   -1.2740 n         1 MOL     -0.320574
    145 C48         6.2200    1.8320   -1.5780 c3        1 MOL     -0.057931
    146 C49         5.2760    2.5040   -0.6060 c         1 MOL      0.328955
    147 O21         5.3660    3.7270   -0.4470 o         1 MOL     -0.512135
    148 C50         5.9220    2.1440   -3.0420 c3        1 MOL      0.073546
    149 C51         4.7240    1.3690   -3.6280 c3        1 MOL      0.178807
    150 C52         4.0660    2.0370   -4.8350 c         1 MOL      0.597910
    151 O22         4.6770    2.0140   -5.9270 o         1 MOL     -0.696797
    152 O23         3.1450    2.8350   -4.6550 o         1 MOL     -0.696797
    153 H65         5.9970   -0.1990   -2.0050 hn        1 MOL      0.235386
    154 H66         7.1950    2.3130   -1.4680 h1        1 MOL      0.062444
    155 H67         6.7990    1.8780   -3.6370 hc        1 MOL      0.004060
    156 H68         5.7560    3.2110   -3.1610 hc        1 MOL      0.004060
    157 H69         4.0460    1.1850   -2.7940 hc        1 MOL     -0.173831
    158 H70         5.0520    0.3920   -3.9770 hc        1 MOL     -0.173831
    159 N14         4.3540    1.7350    0.0440 n         1 MOL     -0.003346
    160 C53         3.3950    2.0840    1.0320 c3        1 MOL     -0.102391
    161 C54         4.0390    1.9220    2.4550 c         1 MOL      0.391280
    162 O24         3.6880    2.5490    3.5040 o         1 MOL     -0.550218
    163 C55         2.0400    1.3480    0.7100 c3        1 MOL      0.086006
    164 C56         1.3940    1.8560   -0.5470 c3        1 MOL      0.069230
    165 C57         0.0130    1.1220   -0.6460 c         1 MOL      0.344850
    166 O25        -1.1310    1.6620   -0.7660 o         1 MOL     -0.532665
    167 O26         0.0520   -0.1340   -0.7450 o         1 MOL     -0.532665
    168 H71         4.3130    0.7840   -0.3040 hn        1 MOL      0.124074
    169 H72         3.2420    3.1450    0.8620 h1        1 MOL      0.085817
    170 H73         1.3150    1.5390    1.5010 hc        1 MOL      0.042279
    171 H74         2.0910    0.2590    0.6610 hc        1 MOL      0.042279
    172 H75         1.9780    1.6200   -1.4360 hc        1 MOL      0.011319
    173 H76         1.2830    2.9450   -0.5370 hc        1 MOL      0.011319
    174 N15         5.0360    1.0670    2.5280 n         1 MOL      0.036873
    175 C58         5.8410    0.7660    3.7600 c3        1 MOL     -0.229392
    176 H77         5.1900    0.7890    4.6340 h1        1 MOL      0.091038
    177 H78         6.2910   -0.2230    3.6690 h1        1 MOL      0.091038
    178 H79         6.6250    1.5140    3.8730 h1        1 MOL      0.091038
    179 H80         5.2480    0.5180    1.7110 hn        1 MOL     -0.126370
    180 Ca1        -2.5050   -0.5550   -1.3050 Ca        1 MOL      1.744499
    181 O27        -1.4350    0.0140   -3.8590 oh        1 MOL     -0.913579
    182 H81        -2.1240    0.6040   -4.1610 ho        1 MOL      0.423741
    183 H82        -0.6910    0.1870   -4.4400 ho        1 MOL      0.423741
@<TRIPOS>BOND
     1    1    2 1   
     2    1    4 1   
     3    1    5 1   
     4    1    6 1   
     5    2    3 2   
     6    2    7 1   
     7    7    8 1   
     8    7   15 1   
     9    8    9 1   
    10    8   11 1   
    11    8   16 1   
    12    9   10 2   
    13    9   19 1   
    14   11   12 1   
    15   11   17 1   
    16   11   18 1   
    17   12   13 1   
    18   12   14 1   
    19   19   20 1   
    20   19   27 1   
    21   20   21 1   
    22   20   23 1   
    23   20   28 1   
    24   21   22 2   
    25   21   38 1   
    26   23   24 1   
    27   23   25 1   
    28   23   29 1   
    29   24   26 1   
    30   24   30 1   
    31   24   31 1   
    32   25   32 1   
    33   25   33 1   
    34   25   34 1   
    35   26   35 1   
    36   26   36 1   
    37   26   37 1   
    38   38   39 1   
    39   38   46 1   
    40   39   40 1   
    41   39   42 1   
    42   39   47 1   
    43   40   41 2   
    44   40   50 1   
    45   42   43 1   
    46   42   48 1   
    47   42   49 1   
    48   43   44 1   
    49   43   45 1   
    50   50   51 1   
    51   50   54 1   
    52   51   52 1   
    53   51   55 1   
    54   51   56 1   
    55   52   53 2   
    56   52   57 1   
    57   57   58 1   
    58   57   65 1   
    59   58   59 1   
    60   58   61 1   
    61   58   66 1   
    62   59   60 2   
    63   59   69 1   
    64   61   62 1   
    65   61   67 1   
    66   61   68 1   
    67   62   63 1   
    68   62   64 1   
    69   69   70 1   
    70   69   73 1   
    71   70   71 1   
    72   70   74 1   
    73   70   75 1   
    74   71   72 2   
    75   71   76 1   
    76   76   77 1   
    77   76   85 1   
    78   77   78 1   
    79   77   80 1   
    80   77   86 1   
    81   78   79 2   
    82   78   93 1   
    83   80   81 1   
    84   80   87 1   
    85   80   88 1   
    86   81   82 1   
    87   81   89 1   
    88   81   90 1   
    89   82   83 1   
    90   82   84 2   
    91   83   91 1   
    92   83   92 1   
    93   93   94 1   
    94   93  100 1   
    95   94   95 1   
    96   94   97 1   
    97   94  101 1   
    98   95   96 2   
    99   95  109 1   
   100   97   98 1   
   101   97   99 1   
   102   97  102 1   
   103   98  103 1   
   104   98  104 1   
   105   98  105 1   
   106   99  106 1   
   107   99  107 1   
   108   99  108 1   
   109  109  110 1   
   110  109  117 1   
   111  110  111 1   
   112  110  113 1   
   113  110  118 1   
   114  111  112 2   
   115  111  123 1   
   116  113  114 1   
   117  113  119 1   
   118  113  120 1   
   119  114  115 1   
   120  114  116 2   
   121  115  121 1   
   122  115  122 1   
   123  123  124 1   
   124  123  135 1   
   125  124  125 1   
   126  124  127 1   
   127  124  136 1   
   128  125  126 2   
   129  125  144 1   
   130  127  128 1   
   131  127  137 1   
   132  127  138 1   
   133  128  129 ar  
   134  128  130 ar  
   135  129  131 ar  
   136  129  139 1   
   137  130  132 ar  
   138  130  140 1   
   139  131  133 ar  
   140  131  141 1   
   141  132  133 ar  
   142  132  142 1   
   143  133  134 1   
   144  134  143 1   
   145  144  145 1   
   146  144  153 1   
   147  145  146 1   
   148  145  148 1   
   149  145  154 1   
   150  146  147 2   
   151  146  159 1   
   152  148  149 1   
   153  148  155 1   
   154  148  156 1   
   155  149  150 1   
   156  149  157 1   
   157  149  158 1   
   158  150  151 1   
   159  150  152 1   
   160  159  160 1   
   161  159  168 1   
   162  160  161 1   
   163  160  163 1   
   164  160  169 1   
   165  161  162 2   
   166  161  174 1   
   167  163  164 1   
   168  163  170 1   
   169  163  171 1   
   170  164  165 1   
   171  164  172 1   
   172  164  173 1   
   173  165  166 1   
   174  165  167 1   
   175  174  175 1   
   176  174  179 1   
   177  175  176 1   
   178  175  177 1   
   179  175  178 1   
   180  181  182 1   
   181  181  183 1   
@<TRIPOS>SUBSTRUCTURE
     1 MOL         1 TEMP              0 ****  ****    0 ROOT
