@<TRIPOS>MOLECULE
MOL
  172   171     1     0     0
SMALL
resp


@<TRIPOS>ATOM
      1 C1         -0.3100   -3.1000    6.0580 c3        1 MOL     -0.554127
      2 C2          0.0720   -3.0340    4.6140 c         1 MOL      0.802239
      3 O1         -0.6830   -3.2140    3.7210 o         1 MOL     -0.554821
      4 H1         -1.2380   -3.6610    6.1630 hc        1 MOL      0.138316
      5 H2          0.4810   -3.5980    6.6200 hc        1 MOL      0.138316
      6 H3         -0.4500   -2.0910    6.4440 hc        1 MOL      0.138316
      7 N1          1.3730   -2.9310    4.3190 n         1 MOL     -0.716445
      8 C3          2.0130   -2.9650    2.9890 c3        1 MOL      0.449314
      9 C4          2.0290   -4.2980    2.2980 c         1 MOL      0.512864
     10 O2          2.1320   -5.3750    2.8810 o         1 MOL     -0.580152
     11 C5          3.4480   -2.5100    3.1630 c3        1 MOL     -0.539794
     12 C6          4.2340   -2.3240    1.8370 c         1 MOL      0.950487
     13 O3          3.6630   -1.9180    0.8080 o         1 MOL     -0.695498
     14 O4          5.4420   -2.6240    1.9060 o         1 MOL     -0.695498
     15 H4          2.0110   -2.8490    5.1050 hn        1 MOL      0.316262
     16 H5          1.5290   -2.2310    2.3400 h1        1 MOL     -0.032710
     17 H6          3.9520   -3.2000    3.8280 hc        1 MOL      0.082275
     18 H7          3.3330   -1.4630    3.4630 hc        1 MOL      0.082275
     19 N2          1.8790   -4.2460    0.9440 n         1 MOL     -0.629161
     20 C7          2.1730   -5.3430    0.0450 c3        1 MOL      0.758837
     21 C8          3.1190   -5.1420   -1.1530 c         1 MOL      0.269653
     22 O5          3.2230   -6.0480   -2.0080 o         1 MOL     -0.565217
     23 C9          0.8550   -5.9530   -0.4480 c3        1 MOL     -0.353889
     24 H8          1.7880   -3.3140    0.5720 hn        1 MOL      0.282972
     25 H9          2.7130   -6.1330    0.5580 h1        1 MOL     -0.095072
     26 H10         0.2180   -6.2880    0.3680 hc        1 MOL      0.054307
     27 H11         0.3170   -5.2850   -1.1270 hc        1 MOL      0.054307
     28 H12         1.2740   -6.8130   -0.9760 hc        1 MOL      0.054307
     29 N3          3.7920   -4.0530   -1.3260 n         1 MOL     -0.135761
     30 C10         4.6660   -3.7120   -2.4890 c3        1 MOL      0.092424
     31 C11         5.8790   -2.9400   -2.2160 c         1 MOL      0.377183
     32 O6          6.6960   -2.7760   -3.1230 o         1 MOL     -0.588029
     33 C12         3.7720   -3.0810   -3.6040 c3        1 MOL     -0.295491
     34 C13         3.0240   -1.8550   -3.1890 c         1 MOL      0.808122
     35 O7          2.1710   -1.4150   -3.9560 o         1 MOL     -0.709683
     36 O8          3.3340   -1.2880   -2.1160 o         1 MOL     -0.709683
     37 H13         3.9820   -3.4660   -0.5130 hn        1 MOL      0.020169
     38 H14         5.0100   -4.6450   -2.9380 h1        1 MOL      0.057333
     39 H15         2.9980   -3.7990   -3.8990 hc        1 MOL      0.075780
     40 H16         4.3250   -2.6720   -4.4460 hc        1 MOL      0.075780
     41 N4          5.9780   -2.3470   -1.0940 n         1 MOL     -0.072371
     42 C14         7.0770   -1.5690   -0.5530 c3        1 MOL     -0.260121
     43 C15         7.0500   -0.0940   -0.8380 c         1 MOL      0.596512
     44 O9          8.0240    0.5500   -0.3350 o         1 MOL     -0.638043
     45 H17         5.1590   -2.3740   -0.4920 hn        1 MOL      0.091852
     46 H18         7.9920   -1.9450   -0.9980 h1        1 MOL      0.136274
     47 H19         7.2280   -1.7020    0.5200 h1        1 MOL      0.136274
     48 N5          6.1370    0.6050   -1.5580 n         1 MOL     -0.352909
     49 C16         6.2940    1.9710   -2.0690 c3        1 MOL     -0.043633
     50 C17         6.3630    2.9950   -0.9730 c         1 MOL      0.525336
     51 O10         6.7460    4.1490   -1.1830 o         1 MOL     -0.587549
     52 C18         5.1610    2.1680   -3.1260 c3        1 MOL     -0.001041
     53 C19         3.7300    2.0410   -2.6540 c         1 MOL      0.611563
     54 N6          2.8310    1.9320   -3.6090 n         1 MOL     -0.597259
     55 O11         3.4130    1.9670   -1.4390 o         1 MOL     -0.798324
     56 H20         5.4210    0.0580   -2.0070 hn        1 MOL      0.241541
     57 H21         7.2630    2.0070   -2.5650 h1        1 MOL      0.096822
     58 H22         5.1740    1.3580   -3.8720 hc        1 MOL      0.022560
     59 H23         5.3310    3.0300   -3.7650 hc        1 MOL      0.022560
     60 H24         2.9880    2.2580   -4.5490 hn        1 MOL      0.329899
     61 H25         1.8930    1.6320   -3.3490 hn        1 MOL      0.329899
     62 N7          6.0920    2.6820    0.2470 n         1 MOL     -0.138464
     63 C20         6.3020    3.6000    1.4000 c3        1 MOL     -0.213446
     64 C21         5.0530    4.5380    1.5670 c         1 MOL      0.538692
     65 O12         5.1050    5.6310    2.0760 o         1 MOL     -0.549585
     66 H26         5.8400    1.7550    0.5380 hn        1 MOL      0.278459
     67 H27         7.2230    4.1840    1.3240 h1        1 MOL      0.094997
     68 H28         6.4370    3.0740    2.3500 h1        1 MOL      0.094997
     69 N8          3.9420    4.0780    0.9850 n         1 MOL     -0.309602
     70 C22         2.6340    4.5830    1.1980 c3        1 MOL     -0.239198
     71 C23         1.5440    3.4890    1.2830 c         1 MOL      0.569740
     72 O13         1.6530    2.4020    0.7090 o         1 MOL     -0.531568
     73 C24         2.2360    5.4700    0.1110 c3        1 MOL      0.604096
     74 C25         3.0130    6.7760   -0.0260 c3        1 MOL     -0.648981
     75 O14         2.4420    4.7610   -1.0920 oh        1 MOL     -0.612015
     76 H29         4.0150    3.2310    0.4380 hn        1 MOL      0.289086
     77 H30         2.5810    5.2860    2.0370 h1        1 MOL      0.103372
     78 H31         1.1930    5.7780    0.1080 h1        1 MOL     -0.045957
     79 H32         2.2300    3.8410   -0.9080 ho        1 MOL      0.351188
     80 H33         2.7230    7.2530   -0.9590 hc        1 MOL      0.166701
     81 H34         2.8170    7.3750    0.8640 hc        1 MOL      0.166701
     82 H35         4.1000    6.6600   -0.1250 hc        1 MOL      0.166701
     83 N9          0.4600    3.7760    1.9490 n         1 MOL     -0.584751
     84 C26        -0.7180    2.9020    1.8790 c3        1 MOL      0.001226
     85 C27        -1.3520    3.0440    0.4000 c         1 MOL      0.649680
     86 O15        -1.6640    4.1510    0.0220 o         1 MOL     -0.594046
     87 C28        -1.8260    3.2370    2.9360 c3        1 MOL      0.091661
     88 C29        -1.1920    3.5750    4.3360 c3        1 MOL      0.041259
     89 C30        -2.7600    1.9310    3.1010 c3        1 MOL     -0.004883
     90 C31        -2.2710    3.8270    5.4520 c3        1 MOL     -0.172007
     91 H36         0.3510    4.6900    2.3530 hn        1 MOL      0.291101
     92 H37        -0.4000    1.8630    1.9950 h1        1 MOL      0.110805
     93 H38        -2.5050    3.9940    2.5550 hc        1 MOL      0.006891
     94 H39        -0.5880    4.4720    4.2960 hc        1 MOL      0.000189
     95 H40        -0.4720    2.8330    4.6860 hc        1 MOL      0.000189
     96 H41        -3.5190    2.2200    3.8340 hc        1 MOL     -0.002418
     97 H42        -3.2250    1.8540    2.1200 hc        1 MOL     -0.002418
     98 H43        -2.1060    1.1000    3.3590 hc        1 MOL     -0.002418
     99 H44        -1.8060    4.3410    6.2890 hc        1 MOL      0.034468
    100 H45        -3.0020    4.5110    5.0280 hc        1 MOL      0.034468
    101 H46        -2.6860    2.8650    5.7930 hc        1 MOL      0.034468
    102 N10        -1.5920    1.8790   -0.1960 n         1 MOL     -0.288957
    103 C32        -2.5210    1.8140   -1.3780 c3        1 MOL     -0.021842
    104 C33        -3.9620    1.4640   -1.0960 c         1 MOL      0.685466
    105 O16        -4.1840    1.0600    0.0340 o         1 MOL     -0.501295
    106 C34        -1.8470    0.8660   -2.3690 c3        1 MOL     -0.154652
    107 C35        -0.4180    1.2000   -2.7490 c         1 MOL      0.769684
    108 O17         0.4590    0.8320   -1.9490 o         1 MOL     -0.675459
    109 O18        -0.1730    1.6760   -3.8210 o         1 MOL     -0.675459
    110 H47        -1.3170    1.0120    0.2590 hn        1 MOL      0.015815
    111 H48        -2.6030    2.7870   -1.8560 h1        1 MOL      0.054327
    112 H49        -2.4860    0.7980   -3.2450 hc        1 MOL      0.028843
    113 H50        -1.9240   -0.0920   -1.8630 hc        1 MOL      0.028843
    114 N11        -4.9520    1.6990   -1.9250 n         1 MOL     -0.784901
    115 C36        -6.3760    1.2880   -1.5800 c3        1 MOL      0.559599
    116 C37        -6.5420   -0.2270   -1.1050 c         1 MOL      0.189169
    117 O19        -7.1740   -0.4030   -0.0780 o         1 MOL     -0.448569
    118 C38        -7.3910    1.6240   -2.6940 c3        1 MOL     -0.359180
    119 C39        -8.8180    1.5760   -2.1530 ca        1 MOL      0.095369
    120 C40        -9.3320    2.6890   -1.4790 ca        1 MOL     -0.107438
    121 C41        -9.7090    0.5480   -2.4960 ca        1 MOL     -0.107438
    122 C42       -10.7030    2.6980   -1.0580 ca        1 MOL     -0.166737
    123 C43       -11.0310    0.5090   -2.1900 ca        1 MOL     -0.166737
    124 C44       -11.5310    1.5810   -1.4170 ca        1 MOL     -0.064708
    125 H51        -4.8140    2.2880   -2.7340 hn        1 MOL      0.361611
    126 H52        -6.6850    1.8320   -0.6910 h1        1 MOL      0.000274
    127 H53        -7.2520    0.9310   -3.5160 hc        1 MOL      0.090631
    128 H54        -7.1830    2.6250   -3.0830 hc        1 MOL      0.090631
    129 H55        -8.7420    3.5670   -1.2360 ha        1 MOL      0.102328
    130 H56        -9.2590   -0.1640   -3.1740 ha        1 MOL      0.102328
    131 H57       -11.1660    3.5480   -0.5780 ha        1 MOL      0.126994
    132 H58       -11.6660   -0.2960   -2.5300 ha        1 MOL      0.126994
    133 H59       -12.5780    1.6310   -1.1590 ha        1 MOL      0.086770
    134 N12        -5.8280   -1.2310   -1.7210 n         1 MOL      0.020206
    135 C45        -6.0530   -2.6370   -1.3150 c3        1 MOL     -0.046143
    136 C46        -5.4110   -2.8790    0.0920 c         1 MOL      0.254013
    137 O20        -5.5890   -3.9760    0.6560 o         1 MOL     -0.519092
    138 C47        -5.4950   -3.5000   -2.4730 c3        1 MOL     -0.007819
    139 C48        -5.5180   -2.5840   -3.6710 c3        1 MOL     -0.304613
    140 C49        -5.1440   -1.2480   -3.0160 c3        1 MOL      0.096255
    141 H60        -7.1290   -2.7970   -1.2900 h1        1 MOL      0.100141
    142 H61        -4.4950   -3.9140   -2.3280 hc        1 MOL      0.064745
    143 H62        -6.1250   -4.3720   -2.6310 hc        1 MOL      0.064745
    144 H63        -4.6960   -2.8260   -4.3510 hc        1 MOL      0.093215
    145 H64        -6.5120   -2.3990   -4.0820 hc        1 MOL      0.093215
    146 H65        -4.0660   -1.1850   -2.8770 h1        1 MOL      0.035223
    147 H66        -5.5190   -0.4740   -3.6800 h1        1 MOL      0.035223
    148 N13        -4.6620   -1.9250    0.6400 n         1 MOL      0.063112
    149 C50        -3.9570   -2.1020    1.9070 c3        1 MOL     -0.050643
    150 C51        -4.7060   -1.3050    3.0140 c         1 MOL      0.358238
    151 O21        -4.5530   -1.7420    4.1850 o         1 MOL     -0.551547
    152 C52        -2.5060   -1.6020    1.7260 c3        1 MOL     -0.143823
    153 C53        -1.6280   -2.3510    0.6580 c3        1 MOL      0.079881
    154 C54        -0.2700   -1.6070    0.4980 c         1 MOL      0.734880
    155 O22         0.6300   -2.1500   -0.1790 o         1 MOL     -0.794610
    156 O23        -0.0840   -0.4040    0.8860 o         1 MOL     -0.794610
    157 H67        -4.5020   -1.0470    0.1720 hn        1 MOL     -0.053729
    158 H68        -3.8120   -3.1320    2.2180 h1        1 MOL      0.106984
    159 H69        -2.0420   -1.4970    2.7070 hc        1 MOL      0.097093
    160 H70        -2.6120   -0.5570    1.4340 hc        1 MOL      0.097093
    161 H71        -2.1630   -2.4520   -0.2890 hc        1 MOL      0.037977
    162 H72        -1.4370   -3.3780    0.9790 hc        1 MOL      0.037977
    163 N14        -5.5170   -0.3200    2.6360 n         1 MOL     -0.034128
    164 C55        -6.4730    0.3440    3.5000 c3        1 MOL     -0.063587
    165 H73        -6.4830   -0.1460    4.4740 h1        1 MOL      0.039954
    166 H74        -6.1870    1.3890    3.6230 h1        1 MOL      0.039954
    167 H75        -7.4660    0.2890    3.0550 h1        1 MOL      0.039954
    168 H76        -5.6230   -0.2470    1.6360 hn        1 MOL      0.104240
    169 Ca1         2.1760    0.0180   -0.2640 Ca        1 MOL      1.752208
    170 O24         4.3550    0.7640    1.6520 oh        1 MOL     -0.935973
    171 H77         5.0920    0.5500    2.2170 ho        1 MOL      0.430727
    172 H78         3.6360    0.9820    2.2480 ho        1 MOL      0.430727
@<TRIPOS>BOND
     1    1    2 1   
     2    1    4 1   
     3    1    5 1   
     4    1    6 1   
     5    2    3 2   
     6    2    7 1   
     7    7    8 1   
     8    7   15 1   
     9    8    9 1   
    10    8   11 1   
    11    8   16 1   
    12    9   10 2   
    13    9   19 1   
    14   11   12 1   
    15   11   17 1   
    16   11   18 1   
    17   12   13 1   
    18   12   14 1   
    19   19   20 1   
    20   19   24 1   
    21   20   21 1   
    22   20   23 1   
    23   20   25 1   
    24   21   22 2   
    25   21   29 1   
    26   23   26 1   
    27   23   27 1   
    28   23   28 1   
    29   29   30 1   
    30   29   37 1   
    31   30   31 1   
    32   30   33 1   
    33   30   38 1   
    34   31   32 2   
    35   31   41 1   
    36   33   34 1   
    37   33   39 1   
    38   33   40 1   
    39   34   35 1   
    40   34   36 1   
    41   41   42 1   
    42   41   45 1   
    43   42   43 1   
    44   42   46 1   
    45   42   47 1   
    46   43   44 2   
    47   43   48 1   
    48   48   49 1   
    49   48   56 1   
    50   49   50 1   
    51   49   52 1   
    52   49   57 1   
    53   50   51 2   
    54   50   62 1   
    55   52   53 1   
    56   52   58 1   
    57   52   59 1   
    58   53   54 1   
    59   53   55 2   
    60   54   60 1   
    61   54   61 1   
    62   62   63 1   
    63   62   66 1   
    64   63   64 1   
    65   63   67 1   
    66   63   68 1   
    67   64   65 2   
    68   64   69 1   
    69   69   70 1   
    70   69   76 1   
    71   70   71 1   
    72   70   73 1   
    73   70   77 1   
    74   71   72 2   
    75   71   83 1   
    76   73   74 1   
    77   73   75 1   
    78   73   78 1   
    79   74   80 1   
    80   74   81 1   
    81   74   82 1   
    82   75   79 1   
    83   83   84 1   
    84   83   91 1   
    85   84   85 1   
    86   84   87 1   
    87   84   92 1   
    88   85   86 2   
    89   85  102 1   
    90   87   88 1   
    91   87   89 1   
    92   87   93 1   
    93   88   90 1   
    94   88   94 1   
    95   88   95 1   
    96   89   96 1   
    97   89   97 1   
    98   89   98 1   
    99   90   99 1   
   100   90  100 1   
   101   90  101 1   
   102  102  103 1   
   103  102  110 1   
   104  103  104 1   
   105  103  106 1   
   106  103  111 1   
   107  104  105 2   
   108  104  114 1   
   109  106  107 1   
   110  106  112 1   
   111  106  113 1   
   112  107  108 1   
   113  107  109 1   
   114  114  115 1   
   115  114  125 1   
   116  115  116 1   
   117  115  118 1   
   118  115  126 1   
   119  116  117 2   
   120  116  134 1   
   121  118  119 1   
   122  118  127 1   
   123  118  128 1   
   124  119  120 ar  
   125  119  121 ar  
   126  120  122 ar  
   127  120  129 1   
   128  121  123 ar  
   129  121  130 1   
   130  122  124 ar  
   131  122  131 1   
   132  123  124 ar  
   133  123  132 1   
   134  124  133 1   
   135  134  135 1   
   136  134  140 1   
   137  135  136 1   
   138  135  138 1   
   139  135  141 1   
   140  136  137 2   
   141  136  148 1   
   142  138  139 1   
   143  138  142 1   
   144  138  143 1   
   145  139  140 1   
   146  139  144 1   
   147  139  145 1   
   148  140  146 1   
   149  140  147 1   
   150  148  149 1   
   151  148  157 1   
   152  149  150 1   
   153  149  152 1   
   154  149  158 1   
   155  150  151 2   
   156  150  163 1   
   157  152  153 1   
   158  152  159 1   
   159  152  160 1   
   160  153  154 1   
   161  153  161 1   
   162  153  162 1   
   163  154  155 1   
   164  154  156 1   
   165  163  164 1   
   166  163  168 1   
   167  164  165 1   
   168  164  166 1   
   169  164  167 1   
   170  170  171 1   
   171  170  172 1   
@<TRIPOS>SUBSTRUCTURE
     1 MOL         1 TEMP              0 ****  ****    0 ROOT
