@<TRIPOS>MOLECULE
MOL
  175   173     1     0     0
SMALL
resp


@<TRIPOS>ATOM
      1 C1          0.6230    3.6360    5.6530 c3        1 MOL     -0.345092
      2 C2          0.1760    3.6870    4.1960 c         1 MOL      0.748059
      3 O1          0.9360    3.7610    3.2730 o         1 MOL     -0.531812
      4 H1          1.6560    3.2900    5.7030 hc        1 MOL      0.082431
      5 H2          0.5540    4.6330    6.0890 hc        1 MOL      0.082431
      6 H3         -0.0180    2.9500    6.2070 hc        1 MOL      0.082431
      7 N1         -1.1610    3.6820    3.9800 n         1 MOL     -0.676428
      8 C3         -1.7630    3.5400    2.6540 c3        1 MOL      0.048716
      9 C4         -1.5620    4.8030    1.8230 c         1 MOL      0.699875
     10 O2         -1.6850    5.9570    2.2830 o         1 MOL     -0.603472
     11 C5         -3.3040    3.1390    2.8260 c3        1 MOL     -0.237871
     12 C6         -4.0530    2.9110    1.5890 c         1 MOL      0.704388
     13 O3         -3.5490    2.2290    0.6900 o         1 MOL     -0.683522
     14 O4         -5.3180    3.1630    1.5270 o         1 MOL     -0.683522
     15 H4         -1.7730    3.7370    4.7770 hn        1 MOL      0.337416
     16 H5         -1.2110    2.7580    2.1400 h1        1 MOL      0.034315
     17 H6         -3.7890    3.9080    3.4470 hc        1 MOL      0.056096
     18 H7         -3.3350    2.2200    3.4100 hc        1 MOL      0.056096
     19 N2         -1.4280    4.5220    0.5500 n         1 MOL     -0.697293
     20 C7         -1.5380    5.5290   -0.5560 c3        1 MOL      0.434011
     21 C8         -2.6310    5.1810   -1.6180 c         1 MOL      0.285247
     22 O5         -2.7210    5.8850   -2.6480 o         1 MOL     -0.548890
     23 C9         -0.1750    5.5960   -1.3180 c3        1 MOL     -0.131755
     24 H8         -1.3170    3.5660    0.2630 hn        1 MOL      0.453635
     25 H9         -1.6340    6.5340   -0.1720 h1        1 MOL     -0.003737
     26 H10         0.4880    6.1420   -0.6420 hc        1 MOL      0.020824
     27 H11         0.1920    4.5790   -1.4620 hc        1 MOL      0.020824
     28 H12        -0.3750    6.2070   -2.1990 hc        1 MOL      0.020824
     29 N3         -3.5070    4.1850   -1.4390 n         1 MOL     -0.268209
     30 C10        -4.4590    3.7700   -2.5560 c3        1 MOL      0.128540
     31 C11        -5.7660    3.0710   -2.2480 c         1 MOL      0.269310
     32 O6         -6.6690    3.1080   -3.1390 o         1 MOL     -0.526465
     33 C12        -3.6500    2.9610   -3.5340 c3        1 MOL     -0.091124
     34 C13        -3.1190    1.6110   -3.0920 c         1 MOL      0.679288
     35 O7         -3.3630    1.2450   -1.8970 o         1 MOL     -0.694572
     36 O8         -2.4080    0.9080   -3.8790 o         1 MOL     -0.694572
     37 H13        -3.4590    3.5810   -0.6310 hn        1 MOL      0.126287
     38 H14        -4.8150    4.6400   -3.0990 h1        1 MOL      0.073891
     39 H15        -2.7540    3.4510   -3.9130 hc        1 MOL      0.027929
     40 H16        -4.2280    2.8290   -4.4460 hc        1 MOL      0.027929
     41 N4         -5.9730    2.4700   -1.0550 n         1 MOL     -0.028016
     42 C14        -7.1690    1.7790   -0.6570 c3        1 MOL     -0.152231
     43 C15        -7.3290    0.3960   -1.3040 c         1 MOL      0.418376
     44 O9         -8.4210   -0.0620   -1.5030 o         1 MOL     -0.561756
     45 H17        -5.2530    2.5150   -0.3500 hn        1 MOL      0.130449
     46 H18        -8.0590    2.3850   -0.7910 h1        1 MOL      0.089072
     47 H19        -7.0890    1.5840    0.4160 h1        1 MOL      0.089072
     48 N5         -6.2510   -0.2060   -1.8470 n         1 MOL     -0.090080
     49 C16        -6.2830   -1.5210   -2.4650 c3        1 MOL     -0.091755
     50 C17        -6.4600   -2.6560   -1.4900 c         1 MOL      0.421660
     51 O10        -6.6530   -3.8180   -1.8470 o         1 MOL     -0.550688
     52 C18        -5.0140   -1.7660   -3.3000 c3        1 MOL     -0.049312
     53 C19        -3.6860   -2.0720   -2.5890 c         1 MOL      0.546162
     54 N6         -2.6990   -2.5100   -3.2800 n         1 MOL     -0.612323
     55 O11        -3.4860   -1.8390   -1.3870 o         1 MOL     -0.491578
     56 H20        -5.3690    0.1590   -1.5380 hn        1 MOL      0.076165
     57 H21        -7.1070   -1.6260   -3.1710 h1        1 MOL      0.130816
     58 H22        -4.8390   -0.9890   -4.0330 hc        1 MOL      0.028348
     59 H23        -5.2280   -2.6600   -3.8870 hc        1 MOL      0.028348
     60 H24        -2.7980   -2.4810   -4.2860 hn        1 MOL      0.334016
     61 H25        -1.7980   -2.5400   -2.8400 hn        1 MOL      0.334016
     62 N7         -6.2960   -2.4730   -0.1970 n         1 MOL     -0.184226
     63 C20        -6.6950   -3.5130    0.8690 c3        1 MOL     -0.155314
     64 C21        -5.4830   -4.1970    1.4800 c         1 MOL      0.496026
     65 O12        -5.6190   -5.0740    2.3530 o         1 MOL     -0.577294
     66 H26        -6.0960   -1.5270    0.0790 hn        1 MOL      0.158225
     67 H27        -7.4070   -4.2610    0.5080 h1        1 MOL      0.105329
     68 H28        -7.2450   -2.9860    1.6440 h1        1 MOL      0.105329
     69 N8         -4.3170   -3.9380    0.8880 n         1 MOL     -0.128119
     70 C22        -3.0690   -4.6110    1.2780 c3        1 MOL     -0.341618
     71 C23        -1.9290   -3.5990    1.4640 c         1 MOL      0.755604
     72 O13        -1.9890   -2.4300    1.1000 o         1 MOL     -0.637242
     73 C24        -2.6950   -5.6680    0.2550 c3        1 MOL      0.539964
     74 C25        -3.6210   -6.8980    0.4280 c3        1 MOL     -0.426895
     75 O14        -2.9040   -5.2790   -1.1240 oh        1 MOL     -0.639373
     76 H29        -4.2270   -3.1380    0.2780 hn        1 MOL      0.161955
     77 H30        -3.3080   -5.1440    2.1980 h1        1 MOL      0.119347
     78 H31        -1.6630   -5.9590    0.4320 h1        1 MOL     -0.039954
     79 H32        -2.4190   -4.5380   -1.4770 ho        1 MOL      0.363233
     80 H33        -3.1310   -7.7940    0.0470 hc        1 MOL      0.112542
     81 H34        -3.7520   -7.0670    1.4930 hc        1 MOL      0.112542
     82 H35        -4.6030   -6.8810   -0.0560 hc        1 MOL      0.112542
     83 N9         -0.7220   -4.0400    1.9150 n         1 MOL     -0.610452
     84 C26         0.5180   -3.2220    1.9990 c3        1 MOL      0.089713
     85 C27         1.4020   -3.4900    0.8140 c         1 MOL      0.651216
     86 O15         1.7580   -4.6050    0.4150 o         1 MOL     -0.582192
     87 C28         1.2250   -3.3520    3.3520 c3        1 MOL      0.039953
     88 C29         0.5390   -2.3570    4.3350 c3        1 MOL      0.215093
     89 C30         2.7790   -3.3040    3.4050 c3        1 MOL     -0.058187
     90 C31         0.8790   -2.6040    5.8500 c3        1 MOL     -0.147837
     91 H36        -0.6090   -4.9880    2.2230 hn        1 MOL      0.298001
     92 H37         0.1930   -2.1860    1.8930 h1        1 MOL     -0.043116
     93 H38         0.8820   -4.3320    3.6960 hc        1 MOL     -0.013700
     94 H39        -0.5400   -2.4670    4.2300 hc        1 MOL     -0.056069
     95 H40         0.6700   -1.3430    3.9420 hc        1 MOL     -0.056069
     96 H41         3.1630   -3.9360    2.6040 hc        1 MOL      0.000433
     97 H42         3.1300   -2.2750    3.3460 hc        1 MOL      0.000433
     98 H43         3.0930   -3.6990    4.3670 hc        1 MOL      0.000433
     99 H44         1.9010   -2.3170    6.0880 hc        1 MOL      0.022058
    100 H45         0.2440   -1.9110    6.4140 hc        1 MOL      0.022058
    101 H46         0.5410   -3.5990    6.1560 hc        1 MOL      0.022058
    102 N10         1.8720   -2.3440    0.2530 n         1 MOL     -0.467213
    103 C32         2.6350   -2.1980   -0.9730 c3        1 MOL      0.001186
    104 C33         4.0950   -1.7110   -0.6730 c         1 MOL      0.646547
    105 O16         4.3150   -1.2040    0.4070 o         1 MOL     -0.483202
    106 C34         1.9700   -1.1380   -1.8610 c3        1 MOL     -0.337540
    107 C35         0.5390   -1.5420   -2.1430 c         1 MOL      0.808388
    108 O17        -0.4110   -0.9740   -1.5340 o         1 MOL     -0.707098
    109 O18         0.2790   -2.4220   -3.0520 o         1 MOL     -0.707098
    110 H47         1.4630   -1.4950    0.6190 hn        1 MOL      0.361362
    111 H48         2.6460   -3.1190   -1.5530 h1        1 MOL      0.076625
    112 H49         2.4560   -1.0180   -2.8340 hc        1 MOL      0.096497
    113 H50         2.1230   -0.1530   -1.4170 hc        1 MOL      0.096497
    114 N11         5.0280   -1.9290   -1.6220 n         1 MOL     -0.801352
    115 C36         6.4580   -1.7000   -1.3280 c3        1 MOL      0.638525
    116 C37         6.7550   -0.2520   -0.9660 c         1 MOL      0.231309
    117 O19         7.4220   -0.0700    0.1060 o         1 MOL     -0.502869
    118 C38         7.2800   -2.1060   -2.5400 c3        1 MOL     -0.379560
    119 C39         8.7410   -1.6590   -2.4980 ca        1 MOL      0.068380
    120 C40         9.5690   -1.8630   -1.3460 ca        1 MOL     -0.121044
    121 C41         9.2590   -1.0270   -3.6200 ca        1 MOL     -0.121044
    122 C42        10.9380   -1.5300   -1.4030 ca        1 MOL     -0.132886
    123 C43        10.6570   -0.6960   -3.6780 ca        1 MOL     -0.132886
    124 C44        11.4400   -0.9660   -2.5990 ca        1 MOL     -0.103691
    125 H51         4.7220   -2.3850   -2.4680 hn        1 MOL      0.352118
    126 H52         6.6920   -2.3730   -0.5180 h1        1 MOL      0.008476
    127 H53         6.8010   -1.8200   -3.4800 hc        1 MOL      0.097694
    128 H54         7.2470   -3.1860   -2.4100 hc        1 MOL      0.097694
    129 H55         9.2070   -2.2530   -0.4080 ha        1 MOL      0.109177
    130 H56         8.6280   -0.8840   -4.4830 ha        1 MOL      0.109177
    131 H57        11.6290   -1.6180   -0.5790 ha        1 MOL      0.117653
    132 H58        11.0700   -0.2220   -4.5550 ha        1 MOL      0.117653
    133 H59        12.5070   -0.8510   -2.6370 ha        1 MOL      0.093787
    134 N12         6.2720    0.8210   -1.5970 n         1 MOL     -0.002821
    135 C45         6.4850    2.1310   -1.0500 c3        1 MOL     -0.013242
    136 C46         5.8690    2.3530    0.3720 c         1 MOL      0.292456
    137 O20         6.1700    3.2810    1.1190 o         1 MOL     -0.497800
    138 C47         6.0250    3.0390   -2.1930 c3        1 MOL     -0.090910
    139 C48         6.1350    2.2350   -3.4400 c3        1 MOL      0.011347
    140 C49         5.6970    0.8950   -2.8800 c3        1 MOL      0.010568
    141 H60         7.5600    2.2760   -0.9310 h1        1 MOL      0.079975
    142 H61         4.9830    3.3330   -2.0540 hc        1 MOL      0.048672
    143 H62         6.6980    3.8870   -2.3230 hc        1 MOL      0.048672
    144 H63         5.4370    2.5470   -4.2230 hc        1 MOL      0.013110
    145 H64         7.1220    2.1880   -3.9000 hc        1 MOL      0.013110
    146 H65         4.6280    0.7310   -2.9890 h1        1 MOL      0.023649
    147 H66         6.1380    0.1190   -3.5170 h1        1 MOL      0.023649
    148 N13         4.7540    1.6750    0.6380 n         1 MOL     -0.004584
    149 C50         4.0360    1.8510    1.9340 c3        1 MOL     -0.103511
    150 C51         4.8100    1.1320    3.0390 c         1 MOL      0.449135
    151 O21         4.9810    1.6560    4.1020 o         1 MOL     -0.532731
    152 C52         2.5940    1.3040    1.8920 c3        1 MOL     -0.103443
    153 C53         1.9060    1.8440    0.6530 c3        1 MOL      0.080948
    154 C54         0.4510    1.3860    0.6050 c         1 MOL      0.455619
    155 O22         0.0820    0.3810    1.2720 o         1 MOL     -0.650619
    156 O23        -0.3950    1.8870   -0.1970 o         1 MOL     -0.650619
    157 H67         4.4490    1.0040   -0.0410 hn        1 MOL      0.094911
    158 H68         3.9620    2.9000    2.2430 h1        1 MOL      0.123443
    159 H69         2.0270    1.6760    2.7500 hc        1 MOL      0.042078
    160 H70         2.5480    0.2160    1.8880 hc        1 MOL      0.042078
    161 H71         2.4160    1.4730   -0.2360 hc        1 MOL      0.004926
    162 H72         2.0140    2.9300    0.5940 hc        1 MOL      0.004926
    163 N14         5.4090   -0.0810    2.7360 n         1 MOL     -0.038517
    164 C55         6.4840   -0.6640    3.5790 c3        1 MOL     -0.275168
    165 H73         7.0360   -1.4050    3.0010 h1        1 MOL      0.089959
    166 H74         7.1630    0.1260    3.9010 h1        1 MOL      0.089959
    167 H75         6.0410   -1.1410    4.4530 h1        1 MOL      0.089959
    168 H76         5.3310   -0.5000    1.8120 hn        1 MOL      0.086339
    169 Ca1        -2.2220   -0.0110    0.0730 Ca        1 MOL      1.677489
    170 O24        -2.0360    0.0300    2.8590 oh        1 MOL     -0.743255
    171 H77        -2.3610    0.5440    3.6090 ho        1 MOL      0.383648
    172 H78        -1.1780    0.4130    2.6660 ho        1 MOL      0.383648
    173 O25        -4.7800   -0.1260    1.2550 oh        1 MOL     -0.743255
    174 H79        -5.3600   -0.4620    1.9330 ho        1 MOL      0.383648
    175 H80        -5.1000    0.7570    1.0760 ho        1 MOL      0.383648
@<TRIPOS>BOND
     1    1    2 1   
     2    1    4 1   
     3    1    5 1   
     4    1    6 1   
     5    2    3 2   
     6    2    7 1   
     7    7    8 1   
     8    7   15 1   
     9    8    9 1   
    10    8   11 1   
    11    8   16 1   
    12    9   10 2   
    13    9   19 1   
    14   11   12 1   
    15   11   17 1   
    16   11   18 1   
    17   12   13 1   
    18   12   14 1   
    19   19   20 1   
    20   19   24 1   
    21   20   21 1   
    22   20   23 1   
    23   20   25 1   
    24   21   22 2   
    25   21   29 1   
    26   23   26 1   
    27   23   27 1   
    28   23   28 1   
    29   29   30 1   
    30   29   37 1   
    31   30   31 1   
    32   30   33 1   
    33   30   38 1   
    34   31   32 2   
    35   31   41 1   
    36   33   34 1   
    37   33   39 1   
    38   33   40 1   
    39   34   35 1   
    40   34   36 1   
    41   41   42 1   
    42   41   45 1   
    43   42   43 1   
    44   42   46 1   
    45   42   47 1   
    46   43   44 2   
    47   43   48 1   
    48   48   49 1   
    49   48   56 1   
    50   49   50 1   
    51   49   52 1   
    52   49   57 1   
    53   50   51 2   
    54   50   62 1   
    55   52   53 1   
    56   52   58 1   
    57   52   59 1   
    58   53   54 1   
    59   53   55 2   
    60   54   60 1   
    61   54   61 1   
    62   62   63 1   
    63   62   66 1   
    64   63   64 1   
    65   63   67 1   
    66   63   68 1   
    67   64   65 2   
    68   64   69 1   
    69   69   70 1   
    70   69   76 1   
    71   70   71 1   
    72   70   73 1   
    73   70   77 1   
    74   71   72 2   
    75   71   83 1   
    76   73   74 1   
    77   73   75 1   
    78   73   78 1   
    79   74   80 1   
    80   74   81 1   
    81   74   82 1   
    82   75   79 1   
    83   83   84 1   
    84   83   91 1   
    85   84   85 1   
    86   84   87 1   
    87   84   92 1   
    88   85   86 2   
    89   85  102 1   
    90   87   88 1   
    91   87   89 1   
    92   87   93 1   
    93   88   90 1   
    94   88   94 1   
    95   88   95 1   
    96   89   96 1   
    97   89   97 1   
    98   89   98 1   
    99   90   99 1   
   100   90  100 1   
   101   90  101 1   
   102  102  103 1   
   103  102  110 1   
   104  103  104 1   
   105  103  106 1   
   106  103  111 1   
   107  104  105 2   
   108  104  114 1   
   109  106  107 1   
   110  106  112 1   
   111  106  113 1   
   112  107  108 1   
   113  107  109 1   
   114  114  115 1   
   115  114  125 1   
   116  115  116 1   
   117  115  118 1   
   118  115  126 1   
   119  116  117 2   
   120  116  134 1   
   121  118  119 1   
   122  118  127 1   
   123  118  128 1   
   124  119  120 ar  
   125  119  121 ar  
   126  120  122 ar  
   127  120  129 1   
   128  121  123 ar  
   129  121  130 1   
   130  122  124 ar  
   131  122  131 1   
   132  123  124 ar  
   133  123  132 1   
   134  124  133 1   
   135  134  135 1   
   136  134  140 1   
   137  135  136 1   
   138  135  138 1   
   139  135  141 1   
   140  136  137 2   
   141  136  148 1   
   142  138  139 1   
   143  138  142 1   
   144  138  143 1   
   145  139  140 1   
   146  139  144 1   
   147  139  145 1   
   148  140  146 1   
   149  140  147 1   
   150  148  149 1   
   151  148  157 1   
   152  149  150 1   
   153  149  152 1   
   154  149  158 1   
   155  150  151 2   
   156  150  163 1   
   157  152  153 1   
   158  152  159 1   
   159  152  160 1   
   160  153  154 1   
   161  153  161 1   
   162  153  162 1   
   163  154  155 1   
   164  154  156 1   
   165  163  164 1   
   166  163  168 1   
   167  164  165 1   
   168  164  166 1   
   169  164  167 1   
   170  170  171 1   
   171  170  172 1   
   172  173  174 1   
   173  173  175 1   
@<TRIPOS>SUBSTRUCTURE
     1 MOL         1 TEMP              0 ****  ****    0 ROOT
