@<TRIPOS>MOLECULE
MOL
  189   185     1     0     0
SMALL
resp


@<TRIPOS>ATOM
      1 C1         -0.0240    3.3850    5.5250 c3        1 MOL     -0.431083
      2 C2         -0.2920    2.7670    4.1060 c         1 MOL      0.710429
      3 O1          0.5380    2.9970    3.2340 o         1 MOL     -0.603462
      4 H1          0.9670    3.0890    5.8680 hc        1 MOL      0.112925
      5 H2         -0.0780    4.4720    5.4660 hc        1 MOL      0.112925
      6 H3         -0.7750    3.0210    6.2270 hc        1 MOL      0.112925
      7 N1         -1.3790    2.0700    3.8340 n         1 MOL     -0.523702
      8 C3         -1.8890    1.7420    2.4950 c3        1 MOL      0.200711
      9 C4         -2.3600    3.0230    1.8750 c         1 MOL      0.269553
     10 O2         -3.3780    3.5900    2.3110 o         1 MOL     -0.537754
     11 C5         -2.9690    0.6740    2.6690 c3        1 MOL     -0.280661
     12 C6         -3.6700    0.3150    1.3420 c         1 MOL      0.865742
     13 O3         -4.6260   -0.4910    1.4520 o         1 MOL     -0.719001
     14 O4         -3.3030    0.7670    0.2840 o         1 MOL     -0.719001
     15 H4         -1.9830    1.7660    4.5770 hn        1 MOL      0.313730
     16 H5         -1.0670    1.3300    1.8980 h1        1 MOL      0.011091
     17 H6         -3.5760    1.0370    3.5000 hc        1 MOL      0.070134
     18 H7         -2.5420   -0.2600    3.0290 hc        1 MOL      0.070134
     19 N2         -1.7660    3.4520    0.7870 n         1 MOL     -0.043664
     20 C7         -1.8600    4.7940    0.1620 c3        1 MOL      0.037526
     21 C8         -2.9600    4.8060   -0.9090 c         1 MOL      0.471060
     22 O5         -3.2200    5.8830   -1.4800 o         1 MOL     -0.557306
     23 C9         -0.5070    5.1540   -0.4420 c3        1 MOL     -0.015776
     24 C10         0.5660    5.3700    0.6260 c3        1 MOL      0.038344
     25 C11         0.2970    6.3060    1.7760 c3        1 MOL     -0.146579
     26 C12         1.4230    6.1430    2.8670 c3        1 MOL      0.093595
     27 N3          1.1640    6.9410    4.0990 n4        1 MOL     -0.585469
     28 H8         -1.1070    2.7740    0.4120 hn        1 MOL      0.129502
     29 H9         -2.1480    5.5680    0.8670 h1        1 MOL      0.047670
     30 H10        -0.6710    6.1040   -0.9510 hc        1 MOL      0.029749
     31 H11        -0.3300    4.3260   -1.1300 hc        1 MOL      0.029749
     32 H12         1.4290    5.7170    0.0630 hc        1 MOL     -0.006615
     33 H13         0.8640    4.4370    1.0920 hc        1 MOL     -0.006615
     34 H14        -0.7060    6.0210    2.0660 hc        1 MOL      0.054279
     35 H15         0.2820    7.3680    1.5200 hc        1 MOL      0.054279
     36 H16         2.3880    6.3540    2.3960 hx        1 MOL      0.091335
     37 H17         1.4670    5.0970    3.1800 hx        1 MOL      0.091335
     38 H18         1.2070    7.9270    3.8930 hn        1 MOL      0.386033
     39 H19         0.2240    6.6420    4.3440 hn        1 MOL      0.386033
     40 H20         1.9240    6.7420    4.7350 hn        1 MOL      0.386033
     41 N4         -3.5130    3.6370   -1.2810 n         1 MOL     -0.459215
     42 C13        -4.5880    3.5590   -2.3100 c3        1 MOL      0.092312
     43 C14        -5.7010    2.5670   -1.9960 c         1 MOL      0.363640
     44 O6         -6.6940    2.3150   -2.7260 o         1 MOL     -0.488428
     45 C15        -3.9200    3.4090   -3.6770 c3        1 MOL     -0.218151
     46 C16        -2.8860    2.2390   -3.7640 c         1 MOL      0.877204
     47 O7         -2.8140    1.3650   -2.8670 o         1 MOL     -0.790619
     48 O8         -2.0620    2.1530   -4.7130 o         1 MOL     -0.790619
     49 H21        -3.0200    2.8390   -0.9250 hn        1 MOL      0.299651
     50 H22        -5.0850    4.5280   -2.3390 h1        1 MOL      0.117219
     51 H23        -3.4390    4.3440   -3.9590 hc        1 MOL      0.050478
     52 H24        -4.7140    3.2450   -4.4060 hc        1 MOL      0.050478
     53 N5         -5.6890    2.0260   -0.7330 n         1 MOL     -0.186134
     54 C17        -6.8950    1.6200   -0.0070 c3        1 MOL     -0.221769
     55 C18        -7.4710    0.2880   -0.5090 c         1 MOL      0.541478
     56 O9         -8.6400    0.0710   -0.5110 o         1 MOL     -0.570610
     57 H25        -4.8130    2.1130   -0.2270 hn        1 MOL      0.174438
     58 H26        -7.5960    2.4500   -0.0890 h1        1 MOL      0.115683
     59 H27        -6.6720    1.5320    1.0600 h1        1 MOL      0.115683
     60 N6         -6.5390   -0.6160   -0.8690 n         1 MOL     -0.126853
     61 C19        -6.7580   -1.9620   -1.3040 c3        1 MOL     -0.185187
     62 C20        -6.6040   -3.0670   -0.1820 c         1 MOL      0.436755
     63 O10        -6.6720   -4.2970   -0.4340 o         1 MOL     -0.538804
     64 C21        -5.7420   -2.2810   -2.4720 c3        1 MOL     -0.095486
     65 C22        -4.2620   -2.0530   -2.1670 c         1 MOL      0.668451
     66 O11        -3.4460   -1.8820   -3.1180 o         1 MOL     -0.727844
     67 O12        -3.7650   -2.0920   -1.0420 o         1 MOL     -0.727844
     68 H28        -5.5770   -0.3410   -0.6930 hn        1 MOL      0.105662
     69 H29        -7.7860   -2.0650   -1.6380 h1        1 MOL      0.147150
     70 H30        -6.0430   -1.6730   -3.3190 hc        1 MOL      0.056780
     71 H31        -5.8810   -3.2830   -2.8740 hc        1 MOL      0.056780
     72 N7         -6.3630   -2.6210    1.0330 n         1 MOL     -0.207065
     73 C23        -6.2490   -3.4140    2.2380 c3        1 MOL     -0.122454
     74 C24        -4.9430   -4.2250    2.2610 c         1 MOL      0.596835
     75 O13        -4.9070   -5.2420    2.8650 o         1 MOL     -0.555017
     76 H32        -6.1380   -1.6480    1.1510 hn        1 MOL      0.237181
     77 H33        -7.0970   -4.0840    2.4080 h1        1 MOL      0.076403
     78 H34        -6.0590   -2.6920    3.0320 h1        1 MOL      0.076403
     79 N8         -3.8660   -3.7300    1.5930 n         1 MOL     -0.289365
     80 C25        -2.4920   -4.2700    1.3900 c3        1 MOL     -0.296042
     81 C26        -1.3250   -3.2930    1.3610 c         1 MOL      0.785266
     82 O14        -1.4650   -2.1570    0.8530 o         1 MOL     -0.657869
     83 C27        -2.4020   -5.2140    0.1420 c3        1 MOL      0.374021
     84 C28        -3.3260   -6.4730    0.3470 c3        1 MOL     -0.502974
     85 O15        -2.8620   -4.5850   -1.0160 oh        1 MOL     -0.589179
     86 H35        -3.9910   -2.8230    1.1680 hn        1 MOL      0.229586
     87 H36        -2.4100   -4.9550    2.2310 h1        1 MOL      0.119892
     88 H37        -1.3530   -5.4480   -0.0300 h1        1 MOL      0.009468
     89 H38        -3.5360   -3.9600   -0.7430 ho        1 MOL      0.436105
     90 H39        -4.3430   -6.2650    0.6610 hc        1 MOL      0.139206
     91 H40        -3.4200   -6.9540   -0.6280 hc        1 MOL      0.139206
     92 H41        -2.8430   -7.1630    1.0410 hc        1 MOL      0.139206
     93 N9         -0.1620   -3.6720    1.9450 n         1 MOL     -0.712244
     94 C29         1.1160   -2.8740    1.9490 c3        1 MOL      0.129707
     95 C30         2.2240   -3.4710    1.0690 c         1 MOL      0.519844
     96 O16         2.6350   -4.6500    1.2890 o         1 MOL     -0.537126
     97 C31         1.5590   -2.4640    3.3610 c3        1 MOL      0.072763
     98 C32         0.4720   -1.8890    4.3100 c3        1 MOL      0.221596
     99 C33         2.8490   -1.6300    3.4890 c3        1 MOL     -0.213576
    100 C34         0.9880   -1.6840    5.7420 c3        1 MOL     -0.314384
    101 H42        -0.0980   -4.5980    2.3250 hn        1 MOL      0.339983
    102 H43         0.8800   -1.8750    1.5690 h1        1 MOL      0.138329
    103 H44         1.8900   -3.4350    3.7360 hc        1 MOL     -0.022575
    104 H45        -0.3510   -2.5820    4.5010 hc        1 MOL     -0.036557
    105 H46        -0.0410   -1.0350    3.8760 hc        1 MOL     -0.036557
    106 H47         2.5060   -0.5930    3.4730 hc        1 MOL      0.043085
    107 H48         3.4030   -1.9150    4.3840 hc        1 MOL      0.043085
    108 H49         3.5320   -1.8230    2.6650 hc        1 MOL      0.043085
    109 H50         1.2260   -2.6930    6.0870 hc        1 MOL      0.075519
    110 H51         1.8610   -1.0310    5.7690 hc        1 MOL      0.075519
    111 H52         0.2380   -1.2110    6.3850 hc        1 MOL      0.075519
    112 N10         2.5180   -2.7290   -0.0040 n         1 MOL     -0.177571
    113 C35         3.6430   -2.8620   -0.8290 c3        1 MOL      0.032431
    114 C36         4.9910   -2.4040   -0.3140 c         1 MOL      0.146273
    115 O17         5.1010   -1.6490    0.6770 o         1 MOL     -0.152617
    116 C37         3.4480   -2.0650   -2.1490 c3        1 MOL      0.204636
    117 C38         2.3640   -2.7190   -3.0070 c3        1 MOL     -0.199551
    118 O18         3.0060   -0.7770   -1.7730 oh        1 MOL     -0.663651
    119 H53         2.2190   -1.7640    0.0860 hn        1 MOL      0.049273
    120 H54         3.6990   -3.9120   -1.1220 h1        1 MOL      0.067596
    121 H55         4.3840   -2.1520   -2.6960 h1        1 MOL      0.056468
    122 H56         2.0670   -0.8180   -1.5940 ho        1 MOL      0.430334
    123 H57         1.4880   -2.8730   -2.3790 hc        1 MOL      0.047495
    124 H58         2.0550   -2.1700   -3.8950 hc        1 MOL      0.047495
    125 H59         2.7550   -3.7060   -3.2550 hc        1 MOL      0.047495
    126 N11         6.0810   -2.7680   -1.0030 n         1 MOL     -0.221753
    127 C39         7.4820   -2.2920   -0.6770 c3        1 MOL     -0.236993
    128 C40         7.5390   -0.7570   -0.7210 c         1 MOL      0.512822
    129 O19         8.2150   -0.2440    0.1350 o         1 MOL     -0.497311
    130 C41         8.5560   -2.9880   -1.5420 c3        1 MOL      0.349554
    131 C42         8.6490   -4.4780   -1.5230 c3        1 MOL     -0.318375
    132 O20         8.4470   -2.6980   -2.9120 oh        1 MOL     -0.620246
    133 H60         5.9140   -3.3650   -1.8010 hn        1 MOL      0.285271
    134 H61         7.6140   -2.5790    0.3660 h1        1 MOL      0.168348
    135 H62         9.5230   -2.5710   -1.2470 h1        1 MOL      0.025808
    136 H63         9.3530   -2.5870   -3.2080 ho        1 MOL      0.402655
    137 H64         9.2090   -4.7170   -2.4280 hc        1 MOL      0.089819
    138 H65         9.0860   -4.9350   -0.6450 hc        1 MOL      0.089819
    139 H66         7.6510   -4.8810   -1.7290 hc        1 MOL      0.089819
    140 N12         6.9040   -0.0090   -1.6390 n         1 MOL     -0.312185
    141 C43         6.8240    1.4320   -1.6410 c3        1 MOL     -0.070565
    142 C44         5.9860    2.0080   -0.4290 c         1 MOL      0.445011
    143 O21         6.2100    3.1180   -0.1050 o         1 MOL     -0.515471
    144 C45         6.2170    2.0540   -2.9360 c3        1 MOL     -0.164106
    145 C46         4.7000    1.7460   -3.1010 c3        1 MOL      0.311583
    146 C47         4.1450    2.2950   -4.3530 c3        1 MOL     -0.244198
    147 C48         2.6980    1.8270   -4.5530 c3        1 MOL      0.249185
    148 N13         2.0810    2.6050   -5.6380 n4        1 MOL     -0.421682
    149 H67         6.5130   -0.5470   -2.4040 hn        1 MOL      0.222327
    150 H68         7.8530    1.7660   -1.4860 h1        1 MOL      0.136933
    151 H69         6.7740    1.5500   -3.7350 hc        1 MOL      0.062831
    152 H70         6.4320    3.1120   -3.0300 hc        1 MOL      0.062831
    153 H71         4.1010    2.1130   -2.2740 hc        1 MOL      0.012461
    154 H72         4.6230    0.6650   -3.2310 hc        1 MOL      0.012461
    155 H73         4.7410    1.9580   -5.2020 hc        1 MOL      0.036459
    156 H74         4.1580    3.3880   -4.3740 hc        1 MOL      0.036459
    157 H75         2.0680    1.8400   -3.6640 hx        1 MOL      0.038211
    158 H76         2.7100    0.7840   -4.9040 hx        1 MOL      0.038211
    159 H77         1.2060    2.1900   -5.9220 hn        1 MOL      0.338499
    160 H78         2.0660    3.5830   -5.4060 hn        1 MOL      0.338499
    161 H79         2.6720    2.4450   -6.4520 hn        1 MOL      0.338499
    162 N14         5.1070    1.2190    0.2490 n         1 MOL      0.069334
    163 C49         4.2690    1.5770    1.3920 c3        1 MOL     -0.051584
    164 C50         4.8210    1.1120    2.7510 c         1 MOL      0.408384
    165 O22         4.6760    1.8020    3.7590 o         1 MOL     -0.567875
    166 C51         2.8010    1.0350    1.2940 c3        1 MOL     -0.041125
    167 C52         2.0530    1.6500    0.0960 c3        1 MOL      0.120655
    168 C53         0.8020    0.8860   -0.2930 c         1 MOL      0.697627
    169 O23         0.8400   -0.3600   -0.2580 o         1 MOL     -0.727565
    170 O24        -0.1660    1.4980   -0.7470 o         1 MOL     -0.727565
    171 H80         4.7980    0.3500   -0.1790 hn        1 MOL     -0.319328
    172 H81         4.3240    2.6690    1.4350 h1        1 MOL      0.070794
    173 H82         2.3140    1.1750    2.2520 hc        1 MOL      0.065813
    174 H83         2.7350   -0.0510    1.2080 hc        1 MOL      0.065813
    175 H84         2.6550    1.5160   -0.7980 hc        1 MOL     -0.046562
    176 H85         1.8140    2.6940    0.3370 hc        1 MOL     -0.046562
    177 N15         5.6980    0.1210    2.7820 n         1 MOL     -0.077575
    178 C54         6.3700   -0.4140    4.0030 c3        1 MOL     -0.228571
    179 H86         7.4400   -0.5070    3.8180 h1        1 MOL      0.100107
    180 H87         6.2030    0.2670    4.8370 h1        1 MOL      0.100107
    181 H88         5.9570   -1.3930    4.2450 h1        1 MOL      0.100107
    182 H89         5.8720   -0.3530    1.9030 hn        1 MOL      0.095210
    183 Ca1        -1.7440   -0.4950   -1.3730 Ca        1 MOL      1.813372
    184 O25        -0.3800   -0.5820   -3.8230 oh        1 MOL     -0.850750
    185 H90         0.0180   -1.3710   -4.1740 ho        1 MOL      0.408663
    186 H91        -0.4350    0.0100   -4.5690 ho        1 MOL      0.408663
    187 O26        -0.8960   -2.9920   -2.1230 oh        1 MOL     -0.850750
    188 H92        -0.7260   -3.3650   -2.9830 ho        1 MOL      0.408663
    189 H93        -1.4930   -3.6190   -1.7100 ho        1 MOL      0.408663
@<TRIPOS>BOND
     1    1    2 1   
     2    1    4 1   
     3    1    5 1   
     4    1    6 1   
     5    2    3 2   
     6    2    7 1   
     7    7    8 1   
     8    7   15 1   
     9    8    9 1   
    10    8   11 1   
    11    8   16 1   
    12    9   10 2   
    13    9   19 1   
    14   11   12 1   
    15   11   17 1   
    16   11   18 1   
    17   12   13 1   
    18   12   14 1   
    19   19   20 1   
    20   19   28 1   
    21   20   21 1   
    22   20   23 1   
    23   20   29 1   
    24   21   22 2   
    25   21   41 1   
    26   23   24 1   
    27   23   30 1   
    28   23   31 1   
    29   24   25 1   
    30   24   32 1   
    31   24   33 1   
    32   25   26 1   
    33   25   34 1   
    34   25   35 1   
    35   26   27 1   
    36   26   36 1   
    37   26   37 1   
    38   27   38 1   
    39   27   39 1   
    40   27   40 1   
    41   41   42 1   
    42   41   49 1   
    43   42   43 1   
    44   42   45 1   
    45   42   50 1   
    46   43   44 2   
    47   43   53 1   
    48   45   46 1   
    49   45   51 1   
    50   45   52 1   
    51   46   47 1   
    52   46   48 1   
    53   53   54 1   
    54   53   57 1   
    55   54   55 1   
    56   54   58 1   
    57   54   59 1   
    58   55   56 2   
    59   55   60 1   
    60   60   61 1   
    61   60   68 1   
    62   61   62 1   
    63   61   64 1   
    64   61   69 1   
    65   62   63 2   
    66   62   72 1   
    67   64   65 1   
    68   64   70 1   
    69   64   71 1   
    70   65   66 1   
    71   65   67 1   
    72   72   73 1   
    73   72   76 1   
    74   73   74 1   
    75   73   77 1   
    76   73   78 1   
    77   74   75 2   
    78   74   79 1   
    79   79   80 1   
    80   79   86 1   
    81   80   81 1   
    82   80   83 1   
    83   80   87 1   
    84   81   82 2   
    85   81   93 1   
    86   83   84 1   
    87   83   85 1   
    88   83   88 1   
    89   84   90 1   
    90   84   91 1   
    91   84   92 1   
    92   85   89 1   
    93   93   94 1   
    94   93  101 1   
    95   94   95 1   
    96   94   97 1   
    97   94  102 1   
    98   95   96 2   
    99   95  112 1   
   100   97   98 1   
   101   97   99 1   
   102   97  103 1   
   103   98  100 1   
   104   98  104 1   
   105   98  105 1   
   106   99  106 1   
   107   99  107 1   
   108   99  108 1   
   109  100  109 1   
   110  100  110 1   
   111  100  111 1   
   112  112  113 1   
   113  112  119 1   
   114  113  114 1   
   115  113  116 1   
   116  113  120 1   
   117  114  115 2   
   118  114  126 1   
   119  116  117 1   
   120  116  118 1   
   121  116  121 1   
   122  117  123 1   
   123  117  124 1   
   124  117  125 1   
   125  118  122 1   
   126  126  127 1   
   127  126  133 1   
   128  127  128 1   
   129  127  130 1   
   130  127  134 1   
   131  128  129 2   
   132  128  140 1   
   133  130  131 1   
   134  130  132 1   
   135  130  135 1   
   136  131  137 1   
   137  131  138 1   
   138  131  139 1   
   139  132  136 1   
   140  140  141 1   
   141  140  149 1   
   142  141  142 1   
   143  141  144 1   
   144  141  150 1   
   145  142  143 2   
   146  142  162 1   
   147  144  145 1   
   148  144  151 1   
   149  144  152 1   
   150  145  146 1   
   151  145  153 1   
   152  145  154 1   
   153  146  147 1   
   154  146  155 1   
   155  146  156 1   
   156  147  148 1   
   157  147  157 1   
   158  147  158 1   
   159  148  159 1   
   160  148  160 1   
   161  148  161 1   
   162  162  163 1   
   163  162  171 1   
   164  163  164 1   
   165  163  166 1   
   166  163  172 1   
   167  164  165 2   
   168  164  177 1   
   169  166  167 1   
   170  166  173 1   
   171  166  174 1   
   172  167  168 1   
   173  167  175 1   
   174  167  176 1   
   175  168  169 1   
   176  168  170 1   
   177  177  178 1   
   178  177  182 1   
   179  178  179 1   
   180  178  180 1   
   181  178  181 1   
   182  184  185 1   
   183  184  186 1   
   184  187  188 1   
   185  187  189 1   
@<TRIPOS>SUBSTRUCTURE
     1 MOL         1 TEMP              0 ****  ****    0 ROOT
