@<TRIPOS>MOLECULE
MOL
  186   183     1     0     0
SMALL
resp


@<TRIPOS>ATOM
      1 C1          0.8370   -1.5480    6.2780 c3        1 MOL     -0.406436
      2 C2          0.9200   -1.7130    4.7510 c         1 MOL      0.779877
      3 O1          0.9000   -0.7830    3.9830 o         1 MOL     -0.612628
      4 H1         -0.1910   -1.3270    6.5630 hc        1 MOL      0.101461
      5 H2          1.1570   -2.4700    6.7610 hc        1 MOL      0.101461
      6 H3          1.4840   -0.7280    6.5900 hc        1 MOL      0.101461
      7 N1          1.3800   -2.9090    4.3670 n         1 MOL     -0.693447
      8 C3          2.0340   -3.1470    3.0610 c3        1 MOL      0.270750
      9 C4          1.7910   -4.5080    2.4380 c         1 MOL      0.374966
     10 O2          1.8240   -5.5080    3.1340 o         1 MOL     -0.582207
     11 C5          3.5160   -2.9320    3.3700 c3        1 MOL     -0.086477
     12 C6          4.3450   -2.7700    2.0810 c         1 MOL      0.610948
     13 O3          5.5380   -3.2050    2.0410 o         1 MOL     -0.653850
     14 O4          3.8900   -2.1610    1.0610 o         1 MOL     -0.653850
     15 H4          1.6420   -3.6030    5.0590 hn        1 MOL      0.341526
     16 H5          1.7840   -2.4080    2.3040 h1        1 MOL      0.103173
     17 H6          3.8560   -3.7290    4.0280 hc        1 MOL      0.003791
     18 H7          3.6660   -2.0440    4.0010 hc        1 MOL      0.003791
     19 N2          1.6090   -4.5170    1.1500 n         1 MOL      0.209792
     20 C7          1.6780   -5.6780    0.2530 c3        1 MOL     -0.102684
     21 C8          2.7600   -5.5540   -0.7970 c         1 MOL      0.402048
     22 O5          3.2590   -6.6120   -1.3250 o         1 MOL     -0.591764
     23 C9          0.3990   -6.0330   -0.4670 c3        1 MOL      0.196294
     24 C10        -0.1390   -5.0020   -1.5130 c3        1 MOL     -0.130156
     25 C11        -0.6980   -6.4280    0.5980 c3        1 MOL     -0.328873
     26 C12        -1.5520   -5.1720   -2.0880 c3        1 MOL     -0.221115
     27 H8          1.5330   -3.6370    0.6590 hn        1 MOL     -0.381977
     28 H9          2.0160   -6.4690    0.9260 h1        1 MOL      0.089477
     29 H10         0.5240   -6.9890   -0.9870 hc        1 MOL     -0.004600
     30 H11         0.6240   -5.0450   -2.3030 hc        1 MOL      0.068686
     31 H12        -0.1120   -3.9890   -1.1250 hc        1 MOL      0.068686
     32 H13        -1.4590   -7.0630    0.1650 hc        1 MOL      0.069773
     33 H14        -0.1530   -6.9990    1.3520 hc        1 MOL      0.069773
     34 H15        -1.1890   -5.5380    0.9950 hc        1 MOL      0.069773
     35 H16        -1.7820   -6.2250   -2.2680 hc        1 MOL      0.082201
     36 H17        -2.3080   -4.7950   -1.3950 hc        1 MOL      0.082201
     37 H18        -1.5710   -4.7340   -3.0930 hc        1 MOL      0.082201
     38 N3          3.1460   -4.3490   -1.2250 n         1 MOL     -0.116984
     39 C13         3.9520   -4.1180   -2.5070 c3        1 MOL     -0.099409
     40 C14         5.2980   -3.3040   -2.3040 c         1 MOL      0.419438
     41 O6          6.1140   -3.2840   -3.1880 o         1 MOL     -0.572698
     42 C15         3.1230   -3.3300   -3.5280 c3        1 MOL     -0.047233
     43 C16         2.7260   -1.9310   -3.0630 c         1 MOL      0.765094
     44 O7          3.2540   -1.2940   -2.1240 o         1 MOL     -0.711359
     45 O8          1.7500   -1.4420   -3.6890 o         1 MOL     -0.711359
     46 H19         2.7820   -3.4870   -0.8510 hn        1 MOL      0.209935
     47 H20         4.2490   -5.0720   -2.9460 h1        1 MOL      0.117255
     48 H21         2.2230   -3.9230   -3.7070 hc        1 MOL      0.012452
     49 H22         3.7020   -3.2770   -4.4540 hc        1 MOL      0.012452
     50 N4          5.7000   -2.8960   -1.1290 n         1 MOL      0.009905
     51 C17         7.0710   -2.4160   -0.8120 c3        1 MOL     -0.318448
     52 C18         7.3900   -1.0260   -1.1950 c         1 MOL      0.694467
     53 O9          8.5940   -0.6230   -1.1100 o         1 MOL     -0.654425
     54 H23         5.0160   -2.9860   -0.3820 hn        1 MOL      0.030845
     55 H24         7.8030   -3.1270   -1.2010 h1        1 MOL      0.125522
     56 H25         7.0090   -2.4790    0.2720 h1        1 MOL      0.125522
     57 N5          6.4410   -0.1540   -1.5330 n         1 MOL     -0.343877
     58 C19         6.7060    1.1650   -2.1360 c3        1 MOL      0.031701
     59 C20         7.0350    2.3220   -1.1360 c         1 MOL      0.376106
     60 O10         7.2760    3.4690   -1.5560 o         1 MOL     -0.510910
     61 C21         5.6150    1.6750   -3.1270 c3        1 MOL     -0.308542
     62 C22         4.1890    1.8000   -2.6160 c         1 MOL      0.919137
     63 O11         4.0380    1.6000   -1.3480 o         1 MOL     -0.734362
     64 O12         3.2980    1.9590   -3.4740 o         1 MOL     -0.734362
     65 H26         5.4780   -0.4690   -1.6010 hn        1 MOL      0.136076
     66 H27         7.6090    1.0430   -2.7350 h1        1 MOL      0.102369
     67 H28         5.5150    0.8610   -3.8450 hc        1 MOL      0.077789
     68 H29         5.8390    2.6070   -3.6530 hc        1 MOL      0.077789
     69 N6          6.9780    2.1220    0.2110 n         1 MOL     -0.181284
     70 C23         7.1330    3.1280    1.2230 c3        1 MOL     -0.170912
     71 C24         5.9790    4.1640    1.3120 c         1 MOL      0.408640
     72 O13         6.2540    5.2880    1.7970 o         1 MOL     -0.550379
     73 H30         6.8630    1.1600    0.5240 hn        1 MOL      0.205354
     74 H31         8.1170    3.5810    1.1320 h1        1 MOL      0.102882
     75 H32         7.1590    2.5630    2.1510 h1        1 MOL      0.102882
     76 N7          4.8170    3.8450    0.6990 n         1 MOL      0.001181
     77 C25         3.5470    4.5800    0.8400 c3        1 MOL     -0.277410
     78 C26         2.4130    3.5400    1.2310 c         1 MOL      0.530785
     79 O14         2.4970    2.4340    0.6970 o         1 MOL     -0.488461
     80 C27         3.1760    5.3680   -0.4610 c3        1 MOL      0.183020
     81 C28         4.3180    6.2760   -0.8090 c3        1 MOL     -0.510167
     82 C29         3.9260    7.2020   -1.9520 c         1 MOL      0.752631
     83 N8          3.9870    6.8360   -3.2290 n         1 MOL     -0.832984
     84 O15         3.5370    8.3450   -1.7290 o         1 MOL     -0.610516
     85 H33         4.8490    3.0730    0.0460 hn        1 MOL      0.028642
     86 H34         3.6730    5.2960    1.6540 h1        1 MOL      0.083392
     87 H35         2.2680    5.9710   -0.3760 hc        1 MOL      0.026699
     88 H36         2.9350    4.6920   -1.2790 hc        1 MOL      0.026699
     89 H37         5.1950    5.7680   -1.2150 hc        1 MOL      0.165584
     90 H38         4.7500    6.8370    0.0230 hc        1 MOL      0.165584
     91 H39         4.1300    5.8430   -3.3630 hn        1 MOL      0.369603
     92 H40         3.5710    7.3670   -3.9770 hn        1 MOL      0.369603
     93 N9          1.4370    3.9690    2.0350 n         1 MOL     -0.377345
     94 C30         0.2300    3.1820    2.3460 c3        1 MOL     -0.016868
     95 C31        -0.7580    3.4950    1.2580 c         1 MOL      0.506373
     96 O16        -0.9810    4.6180    0.8640 o         1 MOL     -0.600336
     97 C32        -0.3110    3.2990    3.7840 c3        1 MOL      0.186905
     98 C33        -1.2650    2.1080    4.0120 c3        1 MOL     -0.306724
     99 C34         0.8100    3.1130    4.7610 c3        1 MOL     -0.306724
    100 H41         1.3990    4.9300    2.3500 hn        1 MOL      0.283750
    101 H42         0.5000    2.1260    2.2630 h1        1 MOL      0.112197
    102 H43        -0.7350    4.2750    4.0060 hc        1 MOL      0.006083
    103 H44        -1.2700    1.8380    5.0700 hc        1 MOL      0.071880
    104 H45        -2.2770    2.3920    3.7170 hc        1 MOL      0.071880
    105 H46        -1.0890    1.1930    3.4440 hc        1 MOL      0.071880
    106 H47         0.5180    3.1070    5.8080 hc        1 MOL      0.071880
    107 H48         1.3530    2.2240    4.4350 hc        1 MOL      0.071880
    108 H49         1.4870    3.9390    4.5230 hc        1 MOL      0.071880
    109 N10        -1.5330    2.4910    0.8330 n         1 MOL     -0.224144
    110 C35        -2.5050    2.6540   -0.2590 c3        1 MOL      0.397034
    111 C36        -3.9780    2.2590    0.0850 c         1 MOL      0.060336
    112 O17        -4.2320    1.5940    1.0560 o         1 MOL     -0.327014
    113 C37        -1.9200    1.8800   -1.3990 c3        1 MOL     -0.256607
    114 C38        -2.8910    1.5230   -2.5630 c         1 MOL      0.609584
    115 N11        -3.2420    2.5330   -3.3310 n         1 MOL     -0.739421
    116 O18        -3.5240    0.5040   -2.7760 o         1 MOL     -0.470169
    117 H50        -1.2790    1.5470    1.0870 hn        1 MOL     -0.015461
    118 H51        -2.5600    3.6730   -0.6230 h1        1 MOL     -0.026305
    119 H52        -1.4970    0.9550   -1.0040 hc        1 MOL      0.094778
    120 H53        -1.0910    2.4690   -1.8040 hc        1 MOL      0.094778
    121 H54        -2.8200    3.4420   -3.2210 hn        1 MOL      0.335691
    122 H55        -3.9000    2.3240   -4.0760 hn        1 MOL      0.335691
    123 N12        -4.8750    2.6950   -0.7880 n         1 MOL     -0.135212
    124 C39        -6.2610    2.3910   -0.5740 c3        1 MOL      0.292981
    125 C40        -6.6040    0.8850   -0.3390 c         1 MOL      0.571428
    126 O19        -7.5210    0.6100    0.4330 o         1 MOL     -0.521972
    127 C41        -7.0460    3.0170   -1.6780 c3        1 MOL     -0.206617
    128 C42        -8.5660    2.7300   -1.4750 ca        1 MOL      0.083215
    129 C43        -9.1520    3.2500   -0.2800 ca        1 MOL     -0.288721
    130 C44        -9.3170    1.8740   -2.2490 ca        1 MOL     -0.288721
    131 C45       -10.4390    2.8730    0.1470 ca        1 MOL     -0.126077
    132 C46       -10.6930    1.6920   -1.9710 ca        1 MOL     -0.126077
    133 C47       -11.2590    2.2520   -0.8060 ca        1 MOL      0.236941
    134 O20       -12.6070    2.2150   -0.5330 oh        1 MOL     -0.480952
    135 H56        -4.7350    3.4180   -1.4770 hn        1 MOL      0.140294
    136 H57        -6.4660    2.9680    0.3320 h1        1 MOL     -0.037614
    137 H58        -6.7210    2.6880   -2.6590 hc        1 MOL      0.067197
    138 H59        -6.9100    4.0860   -1.5400 hc        1 MOL      0.067197
    139 H60        -8.5610    3.8220    0.4260 ha        1 MOL      0.172043
    140 H61        -8.8670    1.3440   -3.0780 ha        1 MOL      0.172043
    141 H62       -10.8580    3.3050    1.0490 ha        1 MOL      0.118383
    142 H63       -11.2860    1.0740   -2.6240 ha        1 MOL      0.118383
    143 H64       -13.0200    1.7750   -1.2750 ho        1 MOL      0.341873
    144 N13        -5.8890   -0.0520   -0.9540 n         1 MOL     -0.342949
    145 C48        -6.1390   -1.4840   -0.7620 c3        1 MOL     -0.143057
    146 C49        -5.3960   -2.0680    0.4630 c         1 MOL      0.308293
    147 O21        -5.7930   -3.1580    0.9090 o         1 MOL     -0.494994
    148 C50        -5.5520   -2.0850   -2.0390 c3        1 MOL      0.387355
    149 C51        -5.7970   -3.6050   -2.1190 c3        1 MOL     -0.447703
    150 C52        -5.5980   -4.0700   -3.5650 c         1 MOL      0.744066
    151 O22        -6.4160   -4.8260   -4.1190 o         1 MOL     -0.750678
    152 O23        -4.6700   -3.5680   -4.2010 o         1 MOL     -0.750678
    153 H65        -5.2090    0.2110   -1.6400 hn        1 MOL      0.080475
    154 H66        -7.1900   -1.7700   -0.7750 h1        1 MOL      0.117314
    155 H67        -4.4850   -1.8570   -2.1140 hc        1 MOL     -0.026813
    156 H68        -6.1000   -1.6940   -2.8970 hc        1 MOL     -0.026813
    157 H69        -6.8380   -3.7790   -1.8290 hc        1 MOL      0.070596
    158 H70        -5.2170   -4.1810   -1.4000 hc        1 MOL      0.070596
    159 N14        -4.3680   -1.3910    1.0080 n         1 MOL     -0.040872
    160 C53        -3.6560   -1.7860    2.1520 c3        1 MOL     -0.297305
    161 C54        -4.2010   -1.2240    3.5200 c         1 MOL      0.487424
    162 O24        -3.8500   -1.6380    4.6000 o         1 MOL     -0.546111
    163 C55        -2.2270   -1.3080    2.0560 c3        1 MOL      0.027723
    164 C56        -1.5400   -1.9200    0.8620 c3        1 MOL     -0.042618
    165 C57        -0.1850   -1.2420    0.6120 c         1 MOL      0.701884
    166 O25         0.7790   -1.8990    0.2510 o         1 MOL     -0.660163
    167 O26         0.0130   -0.0500    0.8840 o         1 MOL     -0.660163
    168 H71        -4.0980   -0.5210    0.5950 hn        1 MOL      0.262241
    169 H72        -3.7840   -2.8590    2.2970 h1        1 MOL      0.140960
    170 H73        -1.6240   -1.4390    2.9590 hc        1 MOL      0.058467
    171 H74        -2.2130   -0.2300    1.8700 hc        1 MOL      0.058467
    172 H75        -2.1780   -1.7490   -0.0050 hc        1 MOL      0.036235
    173 H76        -1.4390   -2.9990    0.9690 hc        1 MOL      0.036235
    174 N15        -5.0990   -0.2530    3.2980 n         1 MOL     -0.110070
    175 C58        -5.6640    0.6180    4.3250 c3        1 MOL     -0.123723
    176 H77        -6.7510    0.6260    4.2360 h1        1 MOL      0.056102
    177 H78        -5.3840    0.2480    5.3120 h1        1 MOL      0.056102
    178 H79        -5.2820    1.6300    4.1940 h1        1 MOL      0.056102
    179 H80        -5.1680    0.0640    2.3350 hn        1 MOL      0.027144
    180 Ca1         2.6220   -0.0410    0.0540 Ca        1 MOL      1.739009
    181 O27         2.9440    0.4620    2.6570 oh        1 MOL     -0.965626
    182 H81         2.2040    0.0180    3.0810 ho        1 MOL      0.450200
    183 H82         3.5260    0.6820    3.3840 ho        1 MOL      0.450200
    184 O28         1.2370    0.8070   -2.0970 oh        1 MOL     -0.965626
    185 H83         1.7840    1.3820   -2.6470 ho        1 MOL      0.450200
    186 H84         1.1510    0.0000   -2.6090 ho        1 MOL      0.450200
@<TRIPOS>BOND
     1    1    2 1   
     2    1    4 1   
     3    1    5 1   
     4    1    6 1   
     5    2    3 2   
     6    2    7 1   
     7    7    8 1   
     8    7   15 1   
     9    8    9 1   
    10    8   11 1   
    11    8   16 1   
    12    9   10 2   
    13    9   19 1   
    14   11   12 1   
    15   11   17 1   
    16   11   18 1   
    17   12   13 1   
    18   12   14 1   
    19   19   20 1   
    20   19   27 1   
    21   20   21 1   
    22   20   23 1   
    23   20   28 1   
    24   21   22 2   
    25   21   38 1   
    26   23   24 1   
    27   23   25 1   
    28   23   29 1   
    29   24   26 1   
    30   24   30 1   
    31   24   31 1   
    32   25   32 1   
    33   25   33 1   
    34   25   34 1   
    35   26   35 1   
    36   26   36 1   
    37   26   37 1   
    38   38   39 1   
    39   38   46 1   
    40   39   40 1   
    41   39   42 1   
    42   39   47 1   
    43   40   41 2   
    44   40   50 1   
    45   42   43 1   
    46   42   48 1   
    47   42   49 1   
    48   43   44 1   
    49   43   45 1   
    50   50   51 1   
    51   50   54 1   
    52   51   52 1   
    53   51   55 1   
    54   51   56 1   
    55   52   53 2   
    56   52   57 1   
    57   57   58 1   
    58   57   65 1   
    59   58   59 1   
    60   58   61 1   
    61   58   66 1   
    62   59   60 2   
    63   59   69 1   
    64   61   62 1   
    65   61   67 1   
    66   61   68 1   
    67   62   63 1   
    68   62   64 1   
    69   69   70 1   
    70   69   73 1   
    71   70   71 1   
    72   70   74 1   
    73   70   75 1   
    74   71   72 2   
    75   71   76 1   
    76   76   77 1   
    77   76   85 1   
    78   77   78 1   
    79   77   80 1   
    80   77   86 1   
    81   78   79 2   
    82   78   93 1   
    83   80   81 1   
    84   80   87 1   
    85   80   88 1   
    86   81   82 1   
    87   81   89 1   
    88   81   90 1   
    89   82   83 1   
    90   82   84 2   
    91   83   91 1   
    92   83   92 1   
    93   93   94 1   
    94   93  100 1   
    95   94   95 1   
    96   94   97 1   
    97   94  101 1   
    98   95   96 2   
    99   95  109 1   
   100   97   98 1   
   101   97   99 1   
   102   97  102 1   
   103   98  103 1   
   104   98  104 1   
   105   98  105 1   
   106   99  106 1   
   107   99  107 1   
   108   99  108 1   
   109  109  110 1   
   110  109  117 1   
   111  110  111 1   
   112  110  113 1   
   113  110  118 1   
   114  111  112 2   
   115  111  123 1   
   116  113  114 1   
   117  113  119 1   
   118  113  120 1   
   119  114  115 1   
   120  114  116 2   
   121  115  121 1   
   122  115  122 1   
   123  123  124 1   
   124  123  135 1   
   125  124  125 1   
   126  124  127 1   
   127  124  136 1   
   128  125  126 2   
   129  125  144 1   
   130  127  128 1   
   131  127  137 1   
   132  127  138 1   
   133  128  129 ar  
   134  128  130 ar  
   135  129  131 ar  
   136  129  139 1   
   137  130  132 ar  
   138  130  140 1   
   139  131  133 ar  
   140  131  141 1   
   141  132  133 ar  
   142  132  142 1   
   143  133  134 1   
   144  134  143 1   
   145  144  145 1   
   146  144  153 1   
   147  145  146 1   
   148  145  148 1   
   149  145  154 1   
   150  146  147 2   
   151  146  159 1   
   152  148  149 1   
   153  148  155 1   
   154  148  156 1   
   155  149  150 1   
   156  149  157 1   
   157  149  158 1   
   158  150  151 1   
   159  150  152 1   
   160  159  160 1   
   161  159  168 1   
   162  160  161 1   
   163  160  163 1   
   164  160  169 1   
   165  161  162 2   
   166  161  174 1   
   167  163  164 1   
   168  163  170 1   
   169  163  171 1   
   170  164  165 1   
   171  164  172 1   
   172  164  173 1   
   173  165  166 1   
   174  165  167 1   
   175  174  175 1   
   176  174  179 1   
   177  175  176 1   
   178  175  177 1   
   179  175  178 1   
   180  181  182 1   
   181  181  183 1   
   182  184  185 1   
   183  184  186 1   
@<TRIPOS>SUBSTRUCTURE
     1 MOL         1 TEMP              0 ****  ****    0 ROOT
