@<TRIPOS>MOLECULE
MOL
  189   185     1     0     0
SMALL
resp


@<TRIPOS>ATOM
      1 C1         -0.0050    3.7110    4.3010 c3        1 MOL     -0.525735
      2 C2         -0.6100    3.2070    3.0190 c         1 MOL      0.736972
      3 O1         -0.0560    3.4810    1.9320 o         1 MOL     -0.629918
      4 H1          1.0590    3.8930    4.1520 hc        1 MOL      0.139284
      5 H2         -0.4950    4.6390    4.5940 hc        1 MOL      0.139284
      6 H3         -0.1400    2.9650    5.0840 hc        1 MOL      0.139284
      7 N1         -1.7140    2.4200    2.9960 n         1 MOL     -0.610417
      8 C3         -2.4320    1.9010    1.8680 c3        1 MOL      0.513638
      9 C4         -3.2880    2.9260    1.1220 c         1 MOL      0.211369
     10 O2         -4.4570    3.0490    1.3560 o         1 MOL     -0.463938
     11 C5         -3.2060    0.6810    2.2960 c3        1 MOL     -0.096506
     12 C6         -4.1390    0.1130    1.2750 c         1 MOL      0.432610
     13 O3         -3.7630   -0.0100    0.0460 o         1 MOL     -0.579764
     14 O4         -5.2410   -0.3680    1.6110 o         1 MOL     -0.579764
     15 H4         -2.2230    2.2130    3.8400 hn        1 MOL      0.268817
     16 H5         -1.7250    1.5250    1.1270 h1        1 MOL     -0.103501
     17 H6         -3.7680    0.9220    3.2080 hc        1 MOL      0.015335
     18 H7         -2.4400   -0.0530    2.5420 hc        1 MOL      0.015335
     19 N2         -2.6560    3.7510    0.2780 n         1 MOL     -0.203635
     20 C7         -3.1410    4.9720   -0.3570 c3        1 MOL      0.072695
     21 C8         -3.7540    4.6820   -1.6900 c         1 MOL      0.382170
     22 O5         -4.4230    5.5820   -2.2070 o         1 MOL     -0.553513
     23 C9         -2.0430    6.0120   -0.4190 c3        1 MOL     -0.141642
     24 C10        -1.9500    6.8920    0.8180 c3        1 MOL      0.055432
     25 C11        -0.8510    7.9880    0.4920 c3        1 MOL      0.016121
     26 C12        -0.2810    8.7110    1.6770 c3        1 MOL     -0.092858
     27 N3          0.7440    7.8980    2.3810 n4        1 MOL     -0.324547
     28 H8         -1.6480    3.6270    0.2550 hn        1 MOL      0.269315
     29 H9         -3.9090    5.5150    0.1920 h1        1 MOL      0.096357
     30 H10        -2.3180    6.7840   -1.1200 hc        1 MOL      0.044381
     31 H11        -1.0800    5.5530   -0.6510 hc        1 MOL      0.044381
     32 H12        -1.6670    6.2620    1.6570 hc        1 MOL     -0.005585
     33 H13        -2.9380    7.3340    0.9710 hc        1 MOL     -0.005585
     34 H14        -1.2490    8.6940   -0.2220 hc        1 MOL      0.056046
     35 H15        -0.0590    7.5230   -0.0940 hc        1 MOL      0.056046
     36 H16        -1.0660    9.0310    2.3680 hx        1 MOL      0.107813
     37 H17         0.1100    9.6340    1.2430 hx        1 MOL      0.107813
     38 H18         1.2160    7.1750    1.8630 hn        1 MOL      0.324604
     39 H19         1.4800    8.4630    2.7840 hn        1 MOL      0.324604
     40 H20         0.2800    7.4190    3.1420 hn        1 MOL      0.324604
     41 N4         -3.6170    3.4750   -2.1950 n         1 MOL     -0.238880
     42 C13        -4.5660    2.9870   -3.2710 c3        1 MOL      0.043549
     43 C14        -5.6970    2.0820   -2.7120 c         1 MOL      0.419924
     44 O6         -6.6700    1.8920   -3.3970 o         1 MOL     -0.529538
     45 C15        -3.7310    2.3820   -4.4570 c3        1 MOL     -0.184497
     46 C16        -2.6810    1.3210   -4.0450 c         1 MOL      0.787342
     47 O7         -2.9290    0.5670   -3.0670 o         1 MOL     -0.700926
     48 O8         -1.6540    1.2090   -4.7860 o         1 MOL     -0.700926
     49 H21        -2.8680    2.9360   -1.7800 hn        1 MOL      0.170067
     50 H22        -5.0420    3.8350   -3.7760 h1        1 MOL      0.098758
     51 H23        -3.1070    3.1380   -4.9240 hc        1 MOL      0.044432
     52 H24        -4.3230    2.0230   -5.3000 hc        1 MOL      0.044432
     53 N5         -5.5890    1.6630   -1.4450 n         1 MOL      0.020902
     54 C17        -6.7640    1.2160   -0.6180 c3        1 MOL     -0.281068
     55 C18        -7.4460   -0.1660   -0.9580 c         1 MOL      0.529640
     56 O9         -8.6610   -0.2830   -0.9980 o         1 MOL     -0.561367
     57 H25        -4.7010    1.7640   -0.9860 hn        1 MOL     -0.010394
     58 H26        -7.4760    2.0350   -0.7570 h1        1 MOL      0.132356
     59 H27        -6.4720    1.1520    0.4310 h1        1 MOL      0.132356
     60 N6         -6.5660   -1.1180   -1.3030 n         1 MOL     -0.246924
     61 C19        -6.7840   -2.5620   -1.6650 c3        1 MOL      0.008066
     62 C20        -6.7300   -3.5520   -0.5400 c         1 MOL      0.387987
     63 O10        -7.1120   -4.7330   -0.7960 o         1 MOL     -0.536154
     64 C21        -5.7440   -2.9950   -2.7020 c3        1 MOL     -0.215959
     65 C22        -4.3070   -2.6730   -2.3360 c         1 MOL      0.701486
     66 O11        -3.7380   -2.7890   -1.2290 o         1 MOL     -0.644628
     67 O12        -3.6360   -2.1400   -3.2400 o         1 MOL     -0.644628
     68 H28        -5.6170   -0.7750   -1.2700 hn        1 MOL      0.163751
     69 H29        -7.7620   -2.6510   -2.1290 h1        1 MOL      0.120119
     70 H30        -5.9990   -2.3750   -3.5620 hc        1 MOL      0.077473
     71 H31        -5.9370   -4.0370   -2.9720 hc        1 MOL      0.077473
     72 N7         -6.3920   -3.1070    0.6870 n         1 MOL     -0.238649
     73 C23        -6.4250   -3.9650    1.9010 c3        1 MOL     -0.088521
     74 C24        -5.0300   -4.2530    2.4590 c         1 MOL      0.471668
     75 O13        -4.9290   -4.8810    3.5440 o         1 MOL     -0.557992
     76 H32        -6.1020   -2.1380    0.7880 hn        1 MOL      0.217467
     77 H33        -6.9250   -4.9350    1.8100 h1        1 MOL      0.096051
     78 H34        -6.8600   -3.4400    2.7470 h1        1 MOL      0.096051
     79 N8         -3.9860   -3.7440    1.8260 n         1 MOL     -0.190052
     80 C25        -2.6440   -4.2390    1.9640 c3        1 MOL     -0.375427
     81 C26        -1.5490   -3.1130    1.7830 c         1 MOL      0.729237
     82 O14        -1.6920   -2.1920    0.8970 o         1 MOL     -0.522933
     83 C27        -2.2340   -5.4000    1.1010 c3        1 MOL      0.416878
     84 C28        -3.0120   -6.7040    1.5090 c3        1 MOL     -0.445142
     85 O15        -2.4480   -5.0930   -0.2260 oh        1 MOL     -0.576188
     86 H35        -4.1470   -3.0840    1.0790 hn        1 MOL      0.299221
     87 H36        -2.5930   -4.5500    3.0040 h1        1 MOL      0.134719
     88 H37        -1.1680   -5.6350    1.1440 h1        1 MOL      0.021446
     89 H38        -3.1980   -4.5010   -0.2990 ho        1 MOL      0.341700
     90 H39        -2.6470   -7.5760    0.9520 hc        1 MOL      0.118653
     91 H40        -2.8150   -6.8790    2.5660 hc        1 MOL      0.118653
     92 H41        -4.0830   -6.7360    1.3050 hc        1 MOL      0.118653
     93 N9         -0.5030   -3.0840    2.6190 n         1 MOL     -0.673643
     94 C29         0.6170   -2.1420    2.5870 c3        1 MOL      0.029592
     95 C30         1.8130   -2.8380    1.8510 c         1 MOL      0.524746
     96 O16         2.3380   -3.8340    2.3390 o         1 MOL     -0.579968
     97 C31         1.0790   -1.7220    4.0540 c3        1 MOL      0.335076
     98 C32        -0.0690   -1.1040    4.8840 c3        1 MOL      0.197183
     99 C33         2.3790   -0.8760    4.0370 c3        1 MOL     -0.476307
    100 C34         0.2530   -0.9730    6.3630 c3        1 MOL     -0.166921
    101 H42        -0.4430   -3.8050    3.3340 hn        1 MOL      0.321184
    102 H43         0.3710   -1.2680    1.9860 h1        1 MOL      0.124730
    103 H44         1.3080   -2.6590    4.5650 hc        1 MOL     -0.057173
    104 H45        -1.0080   -1.6560    4.9110 hc        1 MOL     -0.053553
    105 H46        -0.1920   -0.1260    4.4150 hc        1 MOL     -0.053553
    106 H47         2.2760   -0.0150    3.3880 hc        1 MOL      0.096521
    107 H48         2.6590   -0.5010    5.0230 hc        1 MOL      0.096521
    108 H49         3.2180   -1.5400    3.8020 hc        1 MOL      0.096521
    109 H50        -0.5060   -0.4050    6.8970 hc        1 MOL      0.030733
    110 H51         0.2870   -1.9350    6.8720 hc        1 MOL      0.030733
    111 H52         1.1210   -0.3100    6.4000 hc        1 MOL      0.030733
    112 N10         2.3350   -2.2530    0.8000 n         1 MOL      0.021274
    113 C35         3.5610   -2.5980    0.1160 c3        1 MOL     -0.385140
    114 C36         4.8650   -1.9410    0.6820 c         1 MOL      0.671983
    115 O17         4.8110   -0.8380    1.1990 o         1 MOL     -0.461038
    116 C37         3.5930   -2.1830   -1.4030 c3        1 MOL      0.347669
    117 C38         2.3770   -2.7340   -2.1250 c3        1 MOL     -0.413198
    118 O18         3.4710   -0.8260   -1.4730 oh        1 MOL     -0.494064
    119 H53         1.8410   -1.4560    0.4200 hn        1 MOL     -0.031249
    120 H54         3.6190   -3.6890    0.1130 h1        1 MOL      0.129009
    121 H55         4.4800   -2.5680   -1.9090 h1        1 MOL      0.012680
    122 H56         2.6950   -0.5250   -1.0060 ho        1 MOL      0.331674
    123 H57         1.4000   -2.4460   -1.7230 hc        1 MOL      0.119102
    124 H58         2.4020   -2.5510   -3.1960 hc        1 MOL      0.119102
    125 H59         2.3510   -3.8170   -2.0020 hc        1 MOL      0.119102
    126 N11         6.0210   -2.5250    0.4230 n         1 MOL     -0.570470
    127 C39         7.3690   -1.8790    0.7570 c3        1 MOL      0.121188
    128 C40         7.4440   -0.4420    0.4020 c         1 MOL      0.188014
    129 O19         7.9640    0.4010    1.1660 o         1 MOL     -0.478329
    130 C41         8.4900   -2.5840   -0.0900 c3        1 MOL      0.097908
    131 C42         8.9870   -3.8680    0.6250 c3        1 MOL     -0.409478
    132 O20         8.1220   -2.8270   -1.4400 oh        1 MOL     -0.521641
    133 H60         6.0800   -3.3100   -0.2070 hn        1 MOL      0.331901
    134 H61         7.5390   -1.8300    1.8290 h1        1 MOL      0.122297
    135 H62         9.3050   -1.8660   -0.2270 h1        1 MOL      0.047889
    136 H63         8.9830   -2.8740   -1.8450 ho        1 MOL      0.345387
    137 H64         9.5730   -3.7310    1.5390 hc        1 MOL      0.130965
    138 H65         8.1010   -4.3900    0.9640 hc        1 MOL      0.130965
    139 H66         9.5460   -4.5520   -0.0210 hc        1 MOL      0.130965
    140 N12         7.0040   -0.1170   -0.8310 n         1 MOL      0.085660
    141 C43         6.9100    1.1530   -1.5410 c3        1 MOL     -0.061617
    142 C44         6.0500    2.0960   -0.7880 c         1 MOL      0.322460
    143 O21         6.3700    3.3070   -0.6330 o         1 MOL     -0.519931
    144 C45         6.4830    1.0510   -3.0670 c3        1 MOL     -0.134075
    145 C46         7.0180   -0.1700   -3.7870 c3        1 MOL      0.031124
    146 C47         8.5290   -0.3210   -3.7540 c3        1 MOL      0.001689
    147 C48         8.9010   -1.5630   -4.4730 c3        1 MOL      0.216316
    148 N13        10.3540   -1.8210   -4.7420 n4        1 MOL     -0.312568
    149 H67         6.5350   -0.9050   -1.2630 hn        1 MOL      0.150423
    150 H68         7.9360    1.5410   -1.5340 h1        1 MOL      0.061022
    151 H69         6.6830    2.0330   -3.4830 hc        1 MOL      0.084148
    152 H70         5.3900    1.0570   -3.1610 hc        1 MOL      0.084148
    153 H71         6.6020   -0.2710   -4.7930 hc        1 MOL      0.021490
    154 H72         6.6420   -1.0340   -3.2490 hc        1 MOL      0.021490
    155 H73         8.8970   -0.4150   -2.7350 hc        1 MOL      0.001658
    156 H74         9.0120    0.5610   -4.1680 hc        1 MOL      0.001658
    157 H75         8.3220   -1.7430   -5.3740 hx        1 MOL      0.000934
    158 H76         8.6780   -2.3930   -3.8030 hx        1 MOL      0.000934
    159 H77        10.9320   -1.0710   -5.1050 hn        1 MOL      0.265424
    160 H78        10.8160   -2.2070   -3.9300 hn        1 MOL      0.265424
    161 H79        10.3630   -2.5360   -5.4620 hn        1 MOL      0.265424
    162 N14         4.9430    1.6150   -0.2190 n         1 MOL      0.144690
    163 C49         4.0000    2.3960    0.6850 c3        1 MOL     -0.597867
    164 C50         4.5990    2.7800    2.0240 c         1 MOL      0.749167
    165 O22         4.3500    3.8590    2.5030 o         1 MOL     -0.578877
    166 C51         2.6130    1.7220    0.8370 c3        1 MOL      0.178717
    167 C52         1.7430    1.8350   -0.4080 c3        1 MOL     -0.093989
    168 C53         0.4520    1.0480   -0.4490 c         1 MOL      0.759075
    169 O23        -0.5110    1.5520   -1.0680 o         1 MOL     -0.715166
    170 O24         0.3860   -0.1920   -0.1850 o         1 MOL     -0.715166
    171 H80         4.7550    0.6340   -0.3860 hn        1 MOL     -0.032545
    172 H81         3.7190    3.3380    0.2140 h1        1 MOL      0.192202
    173 H82         2.0350    2.1490    1.6680 hc        1 MOL     -0.004114
    174 H83         2.7370    0.6600    1.0520 hc        1 MOL     -0.004114
    175 H84         2.3680    1.4600   -1.2290 hc        1 MOL      0.027235
    176 H85         1.4750    2.8700   -0.6210 hc        1 MOL      0.027235
    177 N15         5.3530    1.8270    2.6980 n         1 MOL     -0.353139
    178 C54         6.0530    2.1920    3.9400 c3        1 MOL     -0.178978
    179 H86         7.1120    2.3370    3.7300 h1        1 MOL      0.084397
    180 H87         5.6310    3.1150    4.3370 h1        1 MOL      0.084397
    181 H88         5.9350    1.3930    4.6720 h1        1 MOL      0.084397
    182 H89         5.6000    0.9230    2.3050 hn        1 MOL      0.309408
    183 Ca1        -1.8210   -0.9430   -1.3630 Ca        1 MOL      1.686120
    184 O25        -0.4950   -0.7940   -3.6570 oh        1 MOL     -0.867348
    185 H90        -1.0440   -0.1500   -4.1150 ho        1 MOL      0.398409
    186 H91        -0.0390   -1.2680   -4.3490 ho        1 MOL      0.398409
    187 O26        -0.8610   -3.2910   -1.7010 oh        1 MOL     -0.867348
    188 H92        -1.0560   -3.9990   -1.0950 ho        1 MOL      0.398409
    189 H93        -0.9810   -3.6830   -2.5740 ho        1 MOL      0.398409
@<TRIPOS>BOND
     1    1    2 1   
     2    1    4 1   
     3    1    5 1   
     4    1    6 1   
     5    2    3 2   
     6    2    7 1   
     7    7    8 1   
     8    7   15 1   
     9    8    9 1   
    10    8   11 1   
    11    8   16 1   
    12    9   10 2   
    13    9   19 1   
    14   11   12 1   
    15   11   17 1   
    16   11   18 1   
    17   12   13 1   
    18   12   14 1   
    19   19   20 1   
    20   19   28 1   
    21   20   21 1   
    22   20   23 1   
    23   20   29 1   
    24   21   22 2   
    25   21   41 1   
    26   23   24 1   
    27   23   30 1   
    28   23   31 1   
    29   24   25 1   
    30   24   32 1   
    31   24   33 1   
    32   25   26 1   
    33   25   34 1   
    34   25   35 1   
    35   26   27 1   
    36   26   36 1   
    37   26   37 1   
    38   27   38 1   
    39   27   39 1   
    40   27   40 1   
    41   41   42 1   
    42   41   49 1   
    43   42   43 1   
    44   42   45 1   
    45   42   50 1   
    46   43   44 2   
    47   43   53 1   
    48   45   46 1   
    49   45   51 1   
    50   45   52 1   
    51   46   47 1   
    52   46   48 1   
    53   53   54 1   
    54   53   57 1   
    55   54   55 1   
    56   54   58 1   
    57   54   59 1   
    58   55   56 2   
    59   55   60 1   
    60   60   61 1   
    61   60   68 1   
    62   61   62 1   
    63   61   64 1   
    64   61   69 1   
    65   62   63 2   
    66   62   72 1   
    67   64   65 1   
    68   64   70 1   
    69   64   71 1   
    70   65   66 1   
    71   65   67 1   
    72   72   73 1   
    73   72   76 1   
    74   73   74 1   
    75   73   77 1   
    76   73   78 1   
    77   74   75 2   
    78   74   79 1   
    79   79   80 1   
    80   79   86 1   
    81   80   81 1   
    82   80   83 1   
    83   80   87 1   
    84   81   82 2   
    85   81   93 1   
    86   83   84 1   
    87   83   85 1   
    88   83   88 1   
    89   84   90 1   
    90   84   91 1   
    91   84   92 1   
    92   85   89 1   
    93   93   94 1   
    94   93  101 1   
    95   94   95 1   
    96   94   97 1   
    97   94  102 1   
    98   95   96 2   
    99   95  112 1   
   100   97   98 1   
   101   97   99 1   
   102   97  103 1   
   103   98  100 1   
   104   98  104 1   
   105   98  105 1   
   106   99  106 1   
   107   99  107 1   
   108   99  108 1   
   109  100  109 1   
   110  100  110 1   
   111  100  111 1   
   112  112  113 1   
   113  112  119 1   
   114  113  114 1   
   115  113  116 1   
   116  113  120 1   
   117  114  115 2   
   118  114  126 1   
   119  116  117 1   
   120  116  118 1   
   121  116  121 1   
   122  117  123 1   
   123  117  124 1   
   124  117  125 1   
   125  118  122 1   
   126  126  127 1   
   127  126  133 1   
   128  127  128 1   
   129  127  130 1   
   130  127  134 1   
   131  128  129 2   
   132  128  140 1   
   133  130  131 1   
   134  130  132 1   
   135  130  135 1   
   136  131  137 1   
   137  131  138 1   
   138  131  139 1   
   139  132  136 1   
   140  140  141 1   
   141  140  149 1   
   142  141  142 1   
   143  141  144 1   
   144  141  150 1   
   145  142  143 2   
   146  142  162 1   
   147  144  145 1   
   148  144  151 1   
   149  144  152 1   
   150  145  146 1   
   151  145  153 1   
   152  145  154 1   
   153  146  147 1   
   154  146  155 1   
   155  146  156 1   
   156  147  148 1   
   157  147  157 1   
   158  147  158 1   
   159  148  159 1   
   160  148  160 1   
   161  148  161 1   
   162  162  163 1   
   163  162  171 1   
   164  163  164 1   
   165  163  166 1   
   166  163  172 1   
   167  164  165 2   
   168  164  177 1   
   169  166  167 1   
   170  166  173 1   
   171  166  174 1   
   172  167  168 1   
   173  167  175 1   
   174  167  176 1   
   175  168  169 1   
   176  168  170 1   
   177  177  178 1   
   178  177  182 1   
   179  178  179 1   
   180  178  180 1   
   181  178  181 1   
   182  184  185 1   
   183  184  186 1   
   184  187  188 1   
   185  187  189 1   
@<TRIPOS>SUBSTRUCTURE
     1 MOL         1 TEMP              0 ****  ****    0 ROOT
