@<TRIPOS>MOLECULE
MOL
  189   185     1     0     0
SMALL
resp


@<TRIPOS>ATOM
      1 C1         -0.2670    3.0320   -5.1810 c3        1 MOL     -0.477970
      2 C2          0.3200    2.6760   -3.7880 c         1 MOL      0.634367
      3 O1         -0.1430    3.0820   -2.6680 o         1 MOL     -0.590510
      4 H1         -0.3960    2.1190   -5.7640 hc        1 MOL      0.134083
      5 H2         -1.2320    3.5210   -5.0540 hc        1 MOL      0.134083
      6 H3          0.4160    3.7020   -5.7030 hc        1 MOL      0.134083
      7 N1          1.5500    1.9660   -3.7240 n         1 MOL     -0.579315
      8 C3          2.2720    1.5550   -2.4960 c3        1 MOL      0.355990
      9 C4          3.0650    2.6380   -1.7530 c         1 MOL      0.311339
     10 O2          4.2720    2.7180   -2.0150 o         1 MOL     -0.478666
     11 C5          3.0700    0.2960   -2.8360 c3        1 MOL     -0.540626
     12 C6          3.8340   -0.3220   -1.6480 c         1 MOL      0.800445
     13 O3          3.6260    0.0390   -0.4530 o         1 MOL     -0.620840
     14 O4          4.7640   -1.0950   -1.9990 o         1 MOL     -0.620840
     15 H4          2.0090    1.7100   -4.5910 hn        1 MOL      0.302290
     16 H5          1.5020    1.2310   -1.7980 h1        1 MOL      0.031636
     17 H6          3.7270    0.6640   -3.6260 hc        1 MOL      0.137756
     18 H7          2.3920   -0.4680   -3.2180 hc        1 MOL      0.137756
     19 N2          2.5070    3.5210   -0.9380 n         1 MOL     -0.204760
     20 C7          3.0670    4.7780   -0.4920 c3        1 MOL      0.032349
     21 C8          4.1580    4.7200    0.5900 c         1 MOL      0.370832
     22 O5          5.1930    5.3910    0.4460 o         1 MOL     -0.525150
     23 C9          1.9280    5.7670   -0.1400 c3        1 MOL     -0.272277
     24 C10         1.2640    6.3820   -1.3850 c3        1 MOL      0.362591
     25 C11         0.0960    7.2930   -0.9810 c3        1 MOL     -0.210175
     26 C12        -0.3980    8.1210   -2.1780 c3        1 MOL      0.005645
     27 N3         -0.7660    7.4090   -3.4120 n4        1 MOL     -0.338017
     28 H8          1.5620    3.2860   -0.6640 hn        1 MOL      0.298435
     29 H9          3.6460    5.1800   -1.3200 h1        1 MOL      0.077589
     30 H10         2.2920    6.6350    0.4150 hc        1 MOL      0.074972
     31 H11         1.1800    5.2510    0.4730 hc        1 MOL      0.074972
     32 H12         0.9670    5.5810   -2.0760 hc        1 MOL     -0.070396
     33 H13         2.0310    6.9420   -1.9160 hc        1 MOL     -0.070396
     34 H14         0.5670    7.9520   -0.2650 hc        1 MOL      0.084828
     35 H15        -0.7340    6.7850   -0.4810 hc        1 MOL      0.084828
     36 H16         0.3570    8.8810   -2.3980 hx        1 MOL      0.085649
     37 H17        -1.2930    8.6780   -1.8870 hx        1 MOL      0.085649
     38 H18        -1.1970    6.5230   -3.1640 hn        1 MOL      0.326190
     39 H19        -1.4450    7.9880   -3.8800 hn        1 MOL      0.326190
     40 H20         0.0020    7.2750   -4.0580 hn        1 MOL      0.326190
     41 N4          3.9620    3.9130    1.5840 n         1 MOL     -0.338560
     42 C13         4.9280    3.5060    2.5520 c3        1 MOL      0.213487
     43 C14         6.0430    2.7010    1.8190 c         1 MOL      0.329496
     44 O6          7.2000    2.7440    2.2810 o         1 MOL     -0.538051
     45 C15         4.3610    2.7370    3.7790 c3        1 MOL     -0.503208
     46 C16         3.1070    1.8090    3.4900 c         1 MOL      0.817970
     47 O7          2.9150    1.3380    2.3460 o         1 MOL     -0.716487
     48 O8          2.2840    1.5430    4.4240 o         1 MOL     -0.716487
     49 H21         3.0470    3.4910    1.6460 hn        1 MOL      0.280036
     50 H22         5.4500    4.3650    2.9610 h1        1 MOL      0.055042
     51 H23         3.9970    3.4920    4.4910 hc        1 MOL      0.138630
     52 H24         5.1690    2.1020    4.1360 hc        1 MOL      0.138630
     53 N5          5.7600    1.9150    0.7840 n         1 MOL      0.132166
     54 C17         6.7530    1.1750   -0.0470 c3        1 MOL     -0.224574
     55 C18         7.2750   -0.0140    0.7580 c         1 MOL      0.538323
     56 O9          8.4870   -0.2810    0.7420 o         1 MOL     -0.567044
     57 H25         4.8300    1.6320    0.5210 hn        1 MOL     -0.110226
     58 H26         7.5960    1.8110   -0.3000 h1        1 MOL      0.115960
     59 H27         6.2390    0.8460   -0.9500 h1        1 MOL      0.115960
     60 N6          6.3380   -0.7520    1.3370 n         1 MOL     -0.294506
     61 C19         6.5770   -2.0420    2.0400 c3        1 MOL      0.103457
     62 C20         6.5780   -3.1150    0.9370 c         1 MOL      0.353945
     63 O10         6.8760   -4.2550    1.2760 o         1 MOL     -0.539913
     64 C21         5.5190   -2.2870    3.0990 c3        1 MOL     -0.291793
     65 C22         4.1370   -2.1870    2.5420 c         1 MOL      0.853332
     66 O11         3.3070   -1.6720    3.2900 o         1 MOL     -0.755267
     67 O12         3.7760   -2.4580    1.3980 o         1 MOL     -0.755267
     68 H28         5.3850   -0.6120    1.0250 hn        1 MOL      0.121699
     69 H29         7.5860   -2.0320    2.4340 h1        1 MOL      0.095807
     70 H30         5.7180   -1.5020    3.8240 hc        1 MOL      0.085717
     71 H31         5.6830   -3.2680    3.5490 hc        1 MOL      0.085717
     72 N7          6.2190   -2.8130   -0.3220 n         1 MOL     -0.117305
     73 C23         6.3490   -3.7530   -1.4460 c3        1 MOL     -0.192181
     74 C24         4.9860   -4.5450   -1.6740 c         1 MOL      0.494387
     75 O13         5.0320   -5.6910   -2.0280 o         1 MOL     -0.548226
     76 H32         5.7890   -1.9140   -0.4720 hn        1 MOL      0.174117
     77 H33         7.0700   -4.5310   -1.2150 h1        1 MOL      0.106503
     78 H34         6.6780   -3.1860   -2.3190 h1        1 MOL      0.106503
     79 N8          3.8380   -3.9490   -1.3340 n         1 MOL     -0.031605
     80 C25         2.4710   -4.4060   -1.3340 c3        1 MOL     -0.460049
     81 C26         1.3820   -3.3050   -1.5550 c         1 MOL      1.003368
     82 O14         1.6120   -2.2320   -1.0300 o         1 MOL     -0.758903
     83 C27         2.1060   -5.1590   -0.0640 c3        1 MOL      0.490495
     84 C28         2.9020   -6.3950    0.3860 c3        1 MOL     -0.465847
     85 O15         1.9530   -4.3770    1.0620 oh        1 MOL     -0.642679
     86 H35         3.9570   -2.9470   -1.2540 hn        1 MOL      0.083855
     87 H36         2.4570   -5.2210   -2.0570 h1        1 MOL      0.094925
     88 H37         1.1120   -5.5870   -0.2510 h1        1 MOL     -0.017982
     89 H38         2.8000   -3.9250    1.0400 ho        1 MOL      0.396112
     90 H39         2.2620   -6.9240    1.0940 hc        1 MOL      0.123201
     91 H40         3.0340   -7.0860   -0.4470 hc        1 MOL      0.123201
     92 H41         3.8360   -6.1450    0.8730 hc        1 MOL      0.123201
     93 N9          0.2810   -3.6640   -2.1750 n         1 MOL     -0.778298
     94 C29        -0.9040   -2.7790   -2.2450 c3        1 MOL      0.027172
     95 C30        -2.1290   -3.3890   -1.4460 c         1 MOL      0.655468
     96 O16        -2.6560   -4.4210   -1.8180 o         1 MOL     -0.548779
     97 C31        -1.2460   -2.5680   -3.7760 c3        1 MOL     -0.085367
     98 C32        -0.1160   -1.8890   -4.6170 c3        1 MOL      0.200161
     99 C33        -2.5720   -1.7240   -3.9590 c3        1 MOL     -0.076181
    100 C34        -0.3070   -1.8860   -6.1330 c3        1 MOL     -0.260502
    101 H42         0.2170   -4.5760   -2.6030 hn        1 MOL      0.373152
    102 H43        -0.6300   -1.8200   -1.8040 h1        1 MOL      0.154646
    103 H44        -1.4420   -3.5730   -4.1380 hc        1 MOL      0.063196
    104 H45         0.8890   -2.2460   -4.3800 hc        1 MOL     -0.010283
    105 H46         0.0080   -0.8470   -4.3480 hc        1 MOL     -0.010283
    106 H47        -2.5420   -0.6420   -3.7860 hc        1 MOL      0.004442
    107 H48        -2.9520   -1.8670   -4.9730 hc        1 MOL      0.004442
    108 H49        -3.3460   -2.0870   -3.2940 hc        1 MOL      0.004442
    109 H50         0.5510   -1.4050   -6.5910 hc        1 MOL      0.059703
    110 H51        -0.3930   -2.9090   -6.5040 hc        1 MOL      0.059703
    111 H52        -1.1410   -1.2510   -6.3900 hc        1 MOL      0.059703
    112 N10        -2.6020   -2.6640   -0.3870 n         1 MOL     -0.457268
    113 C35        -3.8840   -2.9420    0.2500 c3        1 MOL      0.241681
    114 C36        -5.0910   -2.2480   -0.4130 c         1 MOL      0.136232
    115 O17        -4.9620   -1.3440   -1.2870 o         1 MOL     -0.197955
    116 C37        -3.9090   -2.4510    1.7000 c3        1 MOL      0.100243
    117 C38        -2.9890   -3.2960    2.6620 c3        1 MOL     -0.347844
    118 O18        -3.4630   -1.0930    1.7080 oh        1 MOL     -0.478542
    119 H53        -2.2750   -1.7200   -0.2410 hn        1 MOL      0.218934
    120 H54        -4.1210   -3.9980    0.2260 h1        1 MOL      0.023713
    121 H55        -4.9630   -2.5270    1.9860 h1        1 MOL      0.034625
    122 H56        -2.5170   -1.1140    1.8870 ho        1 MOL      0.376559
    123 H57        -3.2080   -4.3610    2.5600 hc        1 MOL      0.103144
    124 H58        -1.9690   -3.1310    2.3200 hc        1 MOL      0.103144
    125 H59        -3.1330   -2.9780    3.6920 hc        1 MOL      0.103144
    126 N11        -6.2680   -2.7350   -0.0080 n         1 MOL     -0.111087
    127 C39        -7.5360   -2.2090   -0.5350 c3        1 MOL     -0.422337
    128 C40        -7.7470   -0.6980   -0.0230 c         1 MOL      0.561658
    129 O19        -8.3410    0.0720   -0.7440 o         1 MOL     -0.498608
    130 C41        -8.8300   -2.9250   -0.0490 c3        1 MOL      0.381674
    131 C42        -8.8910   -4.3420   -0.5340 c3        1 MOL     -0.262268
    132 O20        -8.7700   -2.9220    1.3670 oh        1 MOL     -0.638276
    133 H60        -6.3210   -3.4600    0.6970 hn        1 MOL      0.264338
    134 H61        -7.4650   -2.2900   -1.6180 h1        1 MOL      0.202170
    135 H62        -9.7750   -2.4730   -0.3450 h1        1 MOL      0.037016
    136 H63        -9.6440   -2.8190    1.7570 ho        1 MOL      0.408204
    137 H64        -7.9440   -4.8030   -0.2610 hc        1 MOL      0.073320
    138 H65        -9.6920   -4.9610   -0.1350 hc        1 MOL      0.073320
    139 H66        -8.9450   -4.4020   -1.6250 hc        1 MOL      0.073320
    140 N12        -7.1550   -0.3330    1.1110 n         1 MOL     -0.445545
    141 C43        -7.0470    1.0500    1.5200 c3        1 MOL      0.108258
    142 C44        -6.1290    1.9800    0.6100 c         1 MOL      0.178594
    143 O21        -6.4390    3.1290    0.3380 o         1 MOL     -0.489316
    144 C45        -6.4430    1.0850    2.9530 c3        1 MOL     -0.207775
    145 C46        -6.2080    2.5500    3.5540 c3        1 MOL     -0.044949
    146 C47        -5.7280    2.6240    5.0120 c3        1 MOL      0.044811
    147 C48        -6.0670    1.4050    5.9740 c3        1 MOL      0.047778
    148 N13        -6.3320    1.7460    7.3590 n4        1 MOL     -0.415206
    149 H67        -6.6060   -1.0330    1.5910 hn        1 MOL      0.247124
    150 H68        -7.9990    1.5900    1.5340 h1        1 MOL      0.123849
    151 H69        -5.5050    0.5450    3.0050 hc        1 MOL      0.050731
    152 H70        -7.2460    0.8170    3.6540 hc        1 MOL      0.050731
    153 H71        -7.1280    3.0850    3.3420 hc        1 MOL      0.051891
    154 H72        -5.3380    2.9110    3.0100 hc        1 MOL      0.051891
    155 H73        -6.2560    3.4700    5.4530 hc        1 MOL      0.015027
    156 H74        -4.6610    2.8500    4.9230 hc        1 MOL      0.015027
    157 H75        -5.2190    0.7340    5.8820 hx        1 MOL      0.085153
    158 H76        -6.9160    0.8860    5.5240 hx        1 MOL      0.085153
    159 H77        -7.0050    2.4970    7.3200 hn        1 MOL      0.340644
    160 H78        -6.5930    0.9130    7.8590 hn        1 MOL      0.340644
    161 H79        -5.4630    2.1580    7.6700 hn        1 MOL      0.340644
    162 N14        -5.0470    1.3820    0.1010 n         1 MOL      0.256241
    163 C49        -4.1080    2.0070   -0.8720 c3        1 MOL     -0.115077
    164 C50        -4.7120    2.1220   -2.2720 c         1 MOL      0.352064
    165 O22        -4.7000    3.2140   -2.8700 o         1 MOL     -0.552045
    166 C51        -2.7330    1.2850   -0.8460 c3        1 MOL      0.114225
    167 C52        -1.9610    1.4590    0.5150 c3        1 MOL     -0.257183
    168 C53        -0.6210    0.7040    0.5050 c         1 MOL      0.766251
    169 O23        -0.6650   -0.5360    0.4880 o         1 MOL     -0.767250
    170 O24         0.4670    1.3630    0.4090 o         1 MOL     -0.767250
    171 H80        -4.9250    0.4340    0.4190 hn        1 MOL     -0.020022
    172 H81        -3.7940    2.9840   -0.5230 h1        1 MOL      0.071372
    173 H82        -2.0320    1.6640   -1.5940 hc        1 MOL      0.018310
    174 H83        -2.8410    0.2430   -1.1720 hc        1 MOL      0.018310
    175 H84        -2.6490    1.1570    1.3080 hc        1 MOL      0.046940
    176 H85        -1.7140    2.5200    0.6090 hc        1 MOL      0.046940
    177 N15        -5.4480    1.0970   -2.7240 n         1 MOL      0.044880
    178 C54        -6.3670    1.1540   -3.9430 c3        1 MOL     -0.260768
    179 H86        -5.8860    0.6530   -4.7840 h1        1 MOL      0.106110
    180 H87        -7.3080    0.6540   -3.7140 h1        1 MOL      0.106110
    181 H88        -6.5620    2.1940   -4.2050 h1        1 MOL      0.106110
    182 H89        -5.2140    0.2530   -2.2070 hn        1 MOL     -0.026240
    183 Ca1         1.8940   -0.7360    1.2680 Ca        1 MOL      1.805797
    184 O25         0.5330   -2.8870    2.9170 oh        1 MOL     -0.847337
    185 H90         0.3540   -3.4430    3.6810 ho        1 MOL      0.396755
    186 H91         0.8460   -3.4940    2.2430 ho        1 MOL      0.396755
    187 O26         0.5460    0.1990    3.2340 oh        1 MOL     -0.847337
    188 H92         0.0920   -0.3560    3.8720 ho        1 MOL      0.396755
    189 H93         1.2820    0.5730    3.7320 ho        1 MOL      0.396755
@<TRIPOS>BOND
     1    1    2 1   
     2    1    4 1   
     3    1    5 1   
     4    1    6 1   
     5    2    3 2   
     6    2    7 1   
     7    7    8 1   
     8    7   15 1   
     9    8    9 1   
    10    8   11 1   
    11    8   16 1   
    12    9   10 2   
    13    9   19 1   
    14   11   12 1   
    15   11   17 1   
    16   11   18 1   
    17   12   13 1   
    18   12   14 1   
    19   19   20 1   
    20   19   28 1   
    21   20   21 1   
    22   20   23 1   
    23   20   29 1   
    24   21   22 2   
    25   21   41 1   
    26   23   24 1   
    27   23   30 1   
    28   23   31 1   
    29   24   25 1   
    30   24   32 1   
    31   24   33 1   
    32   25   26 1   
    33   25   34 1   
    34   25   35 1   
    35   26   27 1   
    36   26   36 1   
    37   26   37 1   
    38   27   38 1   
    39   27   39 1   
    40   27   40 1   
    41   41   42 1   
    42   41   49 1   
    43   42   43 1   
    44   42   45 1   
    45   42   50 1   
    46   43   44 2   
    47   43   53 1   
    48   45   46 1   
    49   45   51 1   
    50   45   52 1   
    51   46   47 1   
    52   46   48 1   
    53   53   54 1   
    54   53   57 1   
    55   54   55 1   
    56   54   58 1   
    57   54   59 1   
    58   55   56 2   
    59   55   60 1   
    60   60   61 1   
    61   60   68 1   
    62   61   62 1   
    63   61   64 1   
    64   61   69 1   
    65   62   63 2   
    66   62   72 1   
    67   64   65 1   
    68   64   70 1   
    69   64   71 1   
    70   65   66 1   
    71   65   67 1   
    72   72   73 1   
    73   72   76 1   
    74   73   74 1   
    75   73   77 1   
    76   73   78 1   
    77   74   75 2   
    78   74   79 1   
    79   79   80 1   
    80   79   86 1   
    81   80   81 1   
    82   80   83 1   
    83   80   87 1   
    84   81   82 2   
    85   81   93 1   
    86   83   84 1   
    87   83   85 1   
    88   83   88 1   
    89   84   90 1   
    90   84   91 1   
    91   84   92 1   
    92   85   89 1   
    93   93   94 1   
    94   93  101 1   
    95   94   95 1   
    96   94   97 1   
    97   94  102 1   
    98   95   96 2   
    99   95  112 1   
   100   97   98 1   
   101   97   99 1   
   102   97  103 1   
   103   98  100 1   
   104   98  104 1   
   105   98  105 1   
   106   99  106 1   
   107   99  107 1   
   108   99  108 1   
   109  100  109 1   
   110  100  110 1   
   111  100  111 1   
   112  112  113 1   
   113  112  119 1   
   114  113  114 1   
   115  113  116 1   
   116  113  120 1   
   117  114  115 2   
   118  114  126 1   
   119  116  117 1   
   120  116  118 1   
   121  116  121 1   
   122  117  123 1   
   123  117  124 1   
   124  117  125 1   
   125  118  122 1   
   126  126  127 1   
   127  126  133 1   
   128  127  128 1   
   129  127  130 1   
   130  127  134 1   
   131  128  129 2   
   132  128  140 1   
   133  130  131 1   
   134  130  132 1   
   135  130  135 1   
   136  131  137 1   
   137  131  138 1   
   138  131  139 1   
   139  132  136 1   
   140  140  141 1   
   141  140  149 1   
   142  141  142 1   
   143  141  144 1   
   144  141  150 1   
   145  142  143 2   
   146  142  162 1   
   147  144  145 1   
   148  144  151 1   
   149  144  152 1   
   150  145  146 1   
   151  145  153 1   
   152  145  154 1   
   153  146  147 1   
   154  146  155 1   
   155  146  156 1   
   156  147  148 1   
   157  147  157 1   
   158  147  158 1   
   159  148  159 1   
   160  148  160 1   
   161  148  161 1   
   162  162  163 1   
   163  162  171 1   
   164  163  164 1   
   165  163  166 1   
   166  163  172 1   
   167  164  165 2   
   168  164  177 1   
   169  166  167 1   
   170  166  173 1   
   171  166  174 1   
   172  167  168 1   
   173  167  175 1   
   174  167  176 1   
   175  168  169 1   
   176  168  170 1   
   177  177  178 1   
   178  177  182 1   
   179  178  179 1   
   180  178  180 1   
   181  178  181 1   
   182  184  185 1   
   183  184  186 1   
   184  187  188 1   
   185  187  189 1   
@<TRIPOS>SUBSTRUCTURE
     1 MOL         1 TEMP              0 ****  ****    0 ROOT
