@<TRIPOS>MOLECULE
MOL
  186   183     1     0     0
SMALL
resp


@<TRIPOS>ATOM
      1 C1          1.1650   -1.3510    6.7730 c3        1 MOL     -0.339518
      2 C2          1.4080   -1.3970    5.2690 c         1 MOL      0.707971
      3 O1          0.5570   -1.9330    4.6090 o         1 MOL     -0.561414
      4 H1          0.5440   -0.4900    7.0150 hc        1 MOL      0.081204
      5 H2          0.6580   -2.2630    7.0880 hc        1 MOL      0.081204
      6 H3          2.1190   -1.2680    7.2940 hc        1 MOL      0.081204
      7 N1          2.6280   -1.0950    4.7580 n         1 MOL     -0.652882
      8 C3          2.9140   -1.2580    3.3660 c3        1 MOL      0.202195
      9 C4          3.3210   -2.7240    2.9320 c         1 MOL      0.639141
     10 O2          4.2540   -3.3130    3.4610 o         1 MOL     -0.606188
     11 C5          3.9350   -0.2170    3.0110 c3        1 MOL     -0.349321
     12 C6          4.3970   -0.2290    1.5700 c         1 MOL      0.732418
     13 O3          5.5150    0.2950    1.3300 o         1 MOL     -0.618653
     14 O4          3.9070   -0.9410    0.6410 o         1 MOL     -0.618653
     15 H4          3.3810   -0.7480    5.3380 hn        1 MOL      0.341852
     16 H5          2.0520   -0.9380    2.7910 h1        1 MOL      0.064263
     17 H6          4.8210   -0.3740    3.6240 hc        1 MOL      0.070715
     18 H7          3.5330    0.7620    3.2500 hc        1 MOL      0.070715
     19 N2          2.5460   -3.3600    2.0030 n         1 MOL     -0.223462
     20 C7          2.7000   -4.7990    1.7440 c3        1 MOL     -0.267837
     21 C8          3.3630   -5.1240    0.4120 c         1 MOL      0.538265
     22 O5          3.6850   -6.2590    0.1760 o         1 MOL     -0.577143
     23 C9          1.2970   -5.4750    1.7780 c3        1 MOL      0.149598
     24 C10         0.2890   -5.1080    0.6700 c3        1 MOL     -0.028221
     25 C11         0.5770   -5.2480    3.1160 c3        1 MOL     -0.176386
     26 C12         0.2890   -6.0720   -0.4800 c3        1 MOL     -0.145236
     27 H8          1.8670   -2.8080    1.5020 hn        1 MOL      0.116457
     28 H9          3.1220   -5.3460    2.5820 h1        1 MOL      0.151593
     29 H10         1.4560   -6.5490    1.8090 hc        1 MOL     -0.000473
     30 H11         0.4320   -4.1090    0.2660 hc        1 MOL      0.034674
     31 H12        -0.7250   -5.0930    1.0640 hc        1 MOL      0.034674
     32 H13        -0.3540   -5.7910    3.2230 hc        1 MOL      0.035735
     33 H14         1.1880   -5.6520    3.9210 hc        1 MOL      0.035735
     34 H15         0.3800   -4.2010    3.3570 hc        1 MOL      0.035735
     35 H16        -0.4700   -5.7590   -1.1980 hc        1 MOL      0.031627
     36 H17         1.2620   -6.1050   -0.9680 hc        1 MOL      0.031627
     37 H18        -0.0250   -7.0900   -0.2230 hc        1 MOL      0.031627
     38 N3          3.6460   -4.1270   -0.4300 n         1 MOL     -0.278568
     39 C13         4.5350   -4.3430   -1.6480 c3        1 MOL     -0.076675
     40 C14         5.8230   -3.4840   -1.6730 c         1 MOL      0.420085
     41 O6          6.6610   -3.5860   -2.5860 o         1 MOL     -0.503713
     42 C15         3.7810   -4.2080   -2.9730 c3        1 MOL      0.000659
     43 C16         3.0480   -2.8400   -3.2390 c         1 MOL      0.687201
     44 O7          3.1960   -1.8830   -2.4730 o         1 MOL     -0.703463
     45 O8          2.2940   -2.7090   -4.2880 o         1 MOL     -0.703463
     46 H19         3.3500   -3.2290   -0.0970 hn        1 MOL      0.208973
     47 H20         4.7900   -5.4050   -1.7130 h1        1 MOL      0.120072
     48 H21         2.9940   -4.9550   -3.0430 hc        1 MOL      0.001301
     49 H22         4.4790   -4.3910   -3.7950 hc        1 MOL      0.001301
     50 N4          6.0050   -2.6390   -0.6400 n         1 MOL     -0.252294
     51 C17         7.2240   -2.0250   -0.2500 c3        1 MOL     -0.046835
     52 C18         7.6230   -0.9240   -1.2470 c         1 MOL      0.425643
     53 O9          8.7610   -0.9210   -1.6820 o         1 MOL     -0.602239
     54 H23         5.1550   -2.4290   -0.1300 hn        1 MOL      0.171999
     55 H24         8.0610   -2.7250   -0.1890 h1        1 MOL      0.069704
     56 H25         7.2030   -1.5980    0.7520 h1        1 MOL      0.069704
     57 N5          6.7380   -0.0700   -1.6310 n         1 MOL     -0.009418
     58 C19         6.9190    1.2570   -2.3760 c3        1 MOL      0.004884
     59 C20         7.1450    2.4780   -1.4600 c         1 MOL      0.439240
     60 O10         7.4750    3.6090   -1.8570 o         1 MOL     -0.545353
     61 C21         5.7520    1.6050   -3.4010 c3        1 MOL     -0.329144
     62 C22         4.3580    1.4790   -2.8730 c         1 MOL      0.788182
     63 O11         4.2660    1.4030   -1.6300 o         1 MOL     -0.719217
     64 O12         3.3460    1.2830   -3.6250 o         1 MOL     -0.719217
     65 H26         5.8970   -0.0320   -1.0770 hn        1 MOL      0.008889
     66 H27         7.7740    1.1450   -3.0420 h1        1 MOL      0.085522
     67 H28         5.8340    0.9070   -4.2400 hc        1 MOL      0.082178
     68 H29         5.8250    2.6570   -3.6800 hc        1 MOL      0.082178
     69 N6          6.9540    2.1600   -0.1420 n         1 MOL     -0.319443
     70 C23         7.0310    3.1640    0.9440 c3        1 MOL     -0.081316
     71 C24         5.7010    3.8740    1.3560 c         1 MOL      0.417870
     72 O13         5.7440    4.9160    2.0400 o         1 MOL     -0.588116
     73 H30         6.5460    1.2630    0.0750 hn        1 MOL      0.211719
     74 H31         7.7960    3.9170    0.7320 h1        1 MOL      0.088120
     75 H32         7.3460    2.6290    1.8350 h1        1 MOL      0.088120
     76 N7          4.5590    3.4600    0.8380 n         1 MOL     -0.113323
     77 C25         3.2720    4.1030    1.0650 c3        1 MOL     -0.052047
     78 C26         2.1130    3.0480    1.1650 c         1 MOL      0.495888
     79 O14         2.2360    1.9010    0.7470 o         1 MOL     -0.608336
     80 C27         3.0280    5.1460   -0.0530 c3        1 MOL      0.251418
     81 C28         3.9400    6.3470   -0.1110 c3        1 MOL     -0.365123
     82 C29         3.5180    7.3380   -1.1720 c         1 MOL      0.684087
     83 N8          4.1460    7.3500   -2.2890 n         1 MOL     -0.814190
     84 O15         2.4460    7.8970   -1.0840 o         1 MOL     -0.589308
     85 H33         4.5640    2.5770    0.3460 hn        1 MOL      0.150672
     86 H34         3.2300    4.7640    1.9330 h1        1 MOL      0.049591
     87 H35         1.9930    5.4890    0.0140 hc        1 MOL     -0.021492
     88 H36         3.0560    4.5430   -0.9660 hc        1 MOL     -0.021492
     89 H37         4.9330    6.0130   -0.3840 hc        1 MOL      0.106983
     90 H38         4.0210    6.9040    0.8120 hc        1 MOL      0.106983
     91 H39         5.0510    6.9180   -2.3530 hn        1 MOL      0.371685
     92 H40         3.6450    7.5670   -3.1390 hn        1 MOL      0.371685
     93 N9          0.8930    3.4990    1.5980 n         1 MOL     -0.457200
     94 C30        -0.3460    2.6820    1.7170 c3        1 MOL      0.008992
     95 C31        -1.3610    3.1770    0.7490 c         1 MOL      0.506805
     96 O16        -1.8810    4.2720    0.9140 o         1 MOL     -0.577809
     97 C32        -0.7340    2.8250    3.1560 c3        1 MOL      0.094411
     98 C33        -2.1900    2.3350    3.4890 c3        1 MOL     -0.243540
     99 C34         0.2860    1.9030    3.9830 c3        1 MOL     -0.243540
    100 H41         0.8390    4.4250    2.0090 hn        1 MOL      0.285777
    101 H42        -0.1540    1.6250    1.5760 h1        1 MOL      0.268148
    102 H43        -0.6560    3.8630    3.4590 hc        1 MOL      0.015141
    103 H44        -2.2650    1.4340    4.0940 hc        1 MOL      0.056443
    104 H45        -2.6070    3.0370    4.2060 hc        1 MOL      0.056443
    105 H46        -2.8690    2.2810    2.6350 hc        1 MOL      0.056443
    106 H47         0.2770    0.9430    3.4630 hc        1 MOL      0.056443
    107 H48         1.3140    2.2700    3.9560 hc        1 MOL      0.056443
    108 H49        -0.0150    1.9590    5.0310 hc        1 MOL      0.056443
    109 N10        -1.7760    2.3490   -0.1890 n         1 MOL     -0.403537
    110 C35        -2.8880    2.6220   -1.1170 c3        1 MOL      0.171833
    111 C36        -4.2920    2.1300   -0.5070 c         1 MOL      0.390157
    112 O17        -4.3820    1.6040    0.6180 o         1 MOL     -0.319746
    113 C37        -2.4770    1.9250   -2.4210 c3        1 MOL     -0.529030
    114 C38        -2.8880    0.4700   -2.5190 c         1 MOL      0.776728
    115 N11        -2.2010   -0.4230   -1.8570 n         1 MOL     -0.672862
    116 O18        -3.7810    0.0940   -3.2450 o         1 MOL     -0.619121
    117 H50        -1.3470    1.4240   -0.1950 hn        1 MOL      0.270072
    118 H51        -3.0290    3.6980   -1.2320 h1        1 MOL      0.075677
    119 H52        -1.4020    1.9610   -2.5690 hc        1 MOL      0.157397
    120 H53        -2.9000    2.4980   -3.2450 hc        1 MOL      0.157397
    121 H54        -1.3970   -0.2400   -1.2860 hn        1 MOL      0.337275
    122 H55        -2.3880   -1.3440   -2.2360 hn        1 MOL      0.337275
    123 N12        -5.3390    2.2670   -1.3260 n         1 MOL     -0.611981
    124 C39        -6.6660    1.8150   -0.7810 c3        1 MOL      0.311595
    125 C40        -6.6200    0.3300   -0.3690 c         1 MOL      0.613045
    126 O19        -7.1460   -0.0510    0.6990 o         1 MOL     -0.555985
    127 C41        -7.8290    2.0570   -1.7380 c3        1 MOL     -0.220235
    128 C42        -9.2860    2.0190   -1.1470 ca        1 MOL      0.240941
    129 C43        -9.5710    2.7240    0.0520 ca        1 MOL     -0.384816
    130 C44       -10.2780    1.2400   -1.7340 ca        1 MOL     -0.384816
    131 C45       -10.8320    2.5390    0.7400 ca        1 MOL     -0.043874
    132 C46       -11.4720    0.9750   -1.0820 ca        1 MOL     -0.043874
    133 C47       -11.7830    1.7090    0.1050 ca        1 MOL      0.149775
    134 O20       -12.9930    1.6240    0.7420 oh        1 MOL     -0.496280
    135 H56        -5.1710    2.6840   -2.2260 hn        1 MOL      0.340854
    136 H57        -6.8000    2.2880    0.1900 h1        1 MOL      0.008307
    137 H58        -7.8150    1.3070   -2.5310 hc        1 MOL      0.066494
    138 H59        -7.6890    3.0560   -2.1640 hc        1 MOL      0.066494
    139 H60        -8.8160    3.3290    0.5390 ha        1 MOL      0.185288
    140 H61       -10.0320    0.6500   -2.6080 ha        1 MOL      0.185288
    141 H62       -11.0610    3.0990    1.6290 ha        1 MOL      0.105802
    142 H63       -12.1540    0.2640   -1.5150 ha        1 MOL      0.105802
    143 H64       -13.7050    1.2610    0.2150 ho        1 MOL      0.366928
    144 N13        -5.9770   -0.5570   -1.1670 n         1 MOL     -0.482695
    145 C48        -5.9330   -2.0060   -0.9440 c3        1 MOL     -0.024510
    146 C49        -5.2650   -2.4700    0.3260 c         1 MOL      0.292971
    147 O21        -5.4870   -3.5590    0.8030 o         1 MOL     -0.516092
    148 C50        -5.3540   -2.7350   -2.1750 c3        1 MOL      0.512990
    149 C51        -6.0390   -2.5050   -3.4990 c3        1 MOL     -0.535732
    150 C52        -5.7280   -3.5520   -4.5540 c         1 MOL      0.875840
    151 O22        -4.9370   -4.5060   -4.4120 o         1 MOL     -0.768118
    152 O23        -6.2490   -3.4700   -5.6590 o         1 MOL     -0.768118
    153 H65        -5.4510   -0.2750   -1.9760 hn        1 MOL      0.248247
    154 H66        -6.9380   -2.4010   -0.9260 h1        1 MOL      0.070302
    155 H67        -5.4770   -3.8030   -1.9750 hc        1 MOL     -0.104138
    156 H68        -4.2700   -2.6150   -2.1870 hc        1 MOL     -0.104138
    157 H69        -5.7860   -1.4730   -3.7470 hc        1 MOL      0.072813
    158 H70        -7.1030   -2.5210   -3.2620 hc        1 MOL      0.072813
    159 N14        -4.4360   -1.6010    0.8590 n         1 MOL     -0.026132
    160 C53        -3.7910   -1.6960    2.1020 c3        1 MOL     -0.049639
    161 C54        -4.4520   -0.9190    3.2390 c         1 MOL      0.473585
    162 O24        -4.3170   -1.3370    4.3960 o         1 MOL     -0.572869
    163 C55        -2.3610   -1.1630    1.9150 c3        1 MOL     -0.037478
    164 C56        -1.4370   -2.1260    1.2220 c3        1 MOL     -0.007683
    165 C57        -0.2890   -1.2960    0.4930 c         1 MOL      0.935371
    166 O25         0.8420   -1.7370    0.3630 o         1 MOL     -0.907538
    167 O26        -0.4170   -0.1520    0.1110 o         1 MOL     -0.907538
    168 H71        -4.3610   -0.7190    0.3710 hn        1 MOL      0.051827
    169 H72        -3.7800   -2.7430    2.4010 h1        1 MOL      0.082456
    170 H73        -1.9630   -0.9120    2.9030 hc        1 MOL      0.034866
    171 H74        -2.3700   -0.1840    1.4290 hc        1 MOL      0.034866
    172 H75        -1.9280   -2.5940    0.3690 hc        1 MOL      0.014314
    173 H76        -1.0790   -2.8690    1.9330 hc        1 MOL      0.014314
    174 N15        -5.3460    0.0850    2.9960 n         1 MOL     -0.058375
    175 C58        -6.0910    0.7360    4.0010 c3        1 MOL     -0.228770
    176 H77        -6.1400    1.8030    3.7830 h1        1 MOL      0.074385
    177 H78        -7.1000    0.3250    4.0310 h1        1 MOL      0.074385
    178 H79        -5.6080    0.5860    4.9670 h1        1 MOL      0.074385
    179 H80        -5.4680    0.4080    2.0510 hn        1 MOL      0.090094
    180 Ca1         2.1680    0.0060   -1.0220 Ca        1 MOL      1.815694
    181 O27         0.7850   -0.4450   -3.2700 oh        1 MOL     -0.841999
    182 H81         1.3660   -1.2030   -3.3340 ho        1 MOL      0.400834
    183 H82         0.2040   -0.5220   -4.0300 ho        1 MOL      0.400834
    184 O28         1.1490    2.4060   -2.2870 oh        1 MOL     -0.841999
    185 H83         1.7450    3.1470   -2.4100 ho        1 MOL      0.400834
    186 H84         0.7000    2.3140   -3.1310 ho        1 MOL      0.400834
@<TRIPOS>BOND
     1    1    2 1   
     2    1    4 1   
     3    1    5 1   
     4    1    6 1   
     5    2    3 2   
     6    2    7 1   
     7    7    8 1   
     8    7   15 1   
     9    8    9 1   
    10    8   11 1   
    11    8   16 1   
    12    9   10 2   
    13    9   19 1   
    14   11   12 1   
    15   11   17 1   
    16   11   18 1   
    17   12   13 1   
    18   12   14 1   
    19   19   20 1   
    20   19   27 1   
    21   20   21 1   
    22   20   23 1   
    23   20   28 1   
    24   21   22 2   
    25   21   38 1   
    26   23   24 1   
    27   23   25 1   
    28   23   29 1   
    29   24   26 1   
    30   24   30 1   
    31   24   31 1   
    32   25   32 1   
    33   25   33 1   
    34   25   34 1   
    35   26   35 1   
    36   26   36 1   
    37   26   37 1   
    38   38   39 1   
    39   38   46 1   
    40   39   40 1   
    41   39   42 1   
    42   39   47 1   
    43   40   41 2   
    44   40   50 1   
    45   42   43 1   
    46   42   48 1   
    47   42   49 1   
    48   43   44 1   
    49   43   45 1   
    50   50   51 1   
    51   50   54 1   
    52   51   52 1   
    53   51   55 1   
    54   51   56 1   
    55   52   53 2   
    56   52   57 1   
    57   57   58 1   
    58   57   65 1   
    59   58   59 1   
    60   58   61 1   
    61   58   66 1   
    62   59   60 2   
    63   59   69 1   
    64   61   62 1   
    65   61   67 1   
    66   61   68 1   
    67   62   63 1   
    68   62   64 1   
    69   69   70 1   
    70   69   73 1   
    71   70   71 1   
    72   70   74 1   
    73   70   75 1   
    74   71   72 2   
    75   71   76 1   
    76   76   77 1   
    77   76   85 1   
    78   77   78 1   
    79   77   80 1   
    80   77   86 1   
    81   78   79 2   
    82   78   93 1   
    83   80   81 1   
    84   80   87 1   
    85   80   88 1   
    86   81   82 1   
    87   81   89 1   
    88   81   90 1   
    89   82   83 1   
    90   82   84 2   
    91   83   91 1   
    92   83   92 1   
    93   93   94 1   
    94   93  100 1   
    95   94   95 1   
    96   94   97 1   
    97   94  101 1   
    98   95   96 2   
    99   95  109 1   
   100   97   98 1   
   101   97   99 1   
   102   97  102 1   
   103   98  103 1   
   104   98  104 1   
   105   98  105 1   
   106   99  106 1   
   107   99  107 1   
   108   99  108 1   
   109  109  110 1   
   110  109  117 1   
   111  110  111 1   
   112  110  113 1   
   113  110  118 1   
   114  111  112 2   
   115  111  123 1   
   116  113  114 1   
   117  113  119 1   
   118  113  120 1   
   119  114  115 1   
   120  114  116 2   
   121  115  121 1   
   122  115  122 1   
   123  123  124 1   
   124  123  135 1   
   125  124  125 1   
   126  124  127 1   
   127  124  136 1   
   128  125  126 2   
   129  125  144 1   
   130  127  128 1   
   131  127  137 1   
   132  127  138 1   
   133  128  129 ar  
   134  128  130 ar  
   135  129  131 ar  
   136  129  139 1   
   137  130  132 ar  
   138  130  140 1   
   139  131  133 ar  
   140  131  141 1   
   141  132  133 ar  
   142  132  142 1   
   143  133  134 1   
   144  134  143 1   
   145  144  145 1   
   146  144  153 1   
   147  145  146 1   
   148  145  148 1   
   149  145  154 1   
   150  146  147 2   
   151  146  159 1   
   152  148  149 1   
   153  148  155 1   
   154  148  156 1   
   155  149  150 1   
   156  149  157 1   
   157  149  158 1   
   158  150  151 1   
   159  150  152 1   
   160  159  160 1   
   161  159  168 1   
   162  160  161 1   
   163  160  163 1   
   164  160  169 1   
   165  161  162 2   
   166  161  174 1   
   167  163  164 1   
   168  163  170 1   
   169  163  171 1   
   170  164  165 1   
   171  164  172 1   
   172  164  173 1   
   173  165  166 1   
   174  165  167 1   
   175  174  175 1   
   176  174  179 1   
   177  175  176 1   
   178  175  177 1   
   179  175  178 1   
   180  181  182 1   
   181  181  183 1   
   182  184  185 1   
   183  184  186 1   
@<TRIPOS>SUBSTRUCTURE
     1 MOL         1 TEMP              0 ****  ****    0 ROOT
