@<TRIPOS>MOLECULE
MOL
  172   171     1     0     0
SMALL
resp


@<TRIPOS>ATOM
      1 C1          0.1870   -2.4520    6.1610 c3        1 MOL     -0.445152
      2 C2          0.6090   -2.5920    4.6530 c         1 MOL      0.738569
      3 O1         -0.1970   -2.9760    3.8270 o         1 MOL     -0.548203
      4 H1          0.9350   -1.8650    6.6940 hc        1 MOL      0.111328
      5 H2         -0.7790   -1.9520    6.2240 hc        1 MOL      0.111328
      6 H3          0.1150   -3.4420    6.6120 hc        1 MOL      0.111328
      7 N1          1.9030   -2.3860    4.3300 n         1 MOL     -0.704238
      8 C3          2.4720   -2.5180    3.0040 c3        1 MOL      0.409578
      9 C4          2.4710   -3.8640    2.3510 c         1 MOL      0.391655
     10 O2          2.9060   -4.9440    2.8560 o         1 MOL     -0.594489
     11 C5          3.8010   -1.7680    3.0070 c3        1 MOL     -0.452405
     12 C6          4.2740   -1.2590    1.6170 c         1 MOL      0.912437
     13 O3          5.2670   -0.5530    1.5090 o         1 MOL     -0.711351
     14 O4          3.5290   -1.4600    0.6630 o         1 MOL     -0.711351
     15 H4          2.5240   -2.0420    5.0570 hn        1 MOL      0.338602
     16 H5          1.7840   -1.9130    2.4240 h1        1 MOL     -0.081834
     17 H6          4.5250   -2.4530    3.4490 hc        1 MOL      0.088272
     18 H7          3.8570   -0.9290    3.7010 hc        1 MOL      0.088272
     19 N2          1.8550   -3.9040    1.1880 n         1 MOL     -0.136418
     20 C7          1.5600   -5.1750    0.5610 c3        1 MOL     -0.022999
     21 C8          2.2280   -5.3240   -0.8250 c         1 MOL      0.444856
     22 O5          2.1650   -6.4110   -1.4040 o         1 MOL     -0.572004
     23 C9          0.0520   -5.3940    0.4100 c3        1 MOL     -0.167705
     24 H8          1.5210   -3.0530    0.7620 hn        1 MOL      0.384491
     25 H9          1.9320   -6.0270    1.1360 h1        1 MOL      0.100792
     26 H10        -0.4570   -5.3660    1.3830 hc        1 MOL      0.045068
     27 H11        -0.3810   -4.6410   -0.2310 hc        1 MOL      0.045068
     28 H12        -0.1870   -6.4040    0.0780 hc        1 MOL      0.045068
     29 N3          2.9150   -4.3070   -1.2950 n         1 MOL     -0.119239
     30 C10         3.7020   -4.3110   -2.5230 c3        1 MOL     -0.020709
     31 C11         5.1430   -3.8290   -2.2770 c         1 MOL      0.403634
     32 O6          6.0260   -4.3540   -2.9750 o         1 MOL     -0.540920
     33 C12         3.0460   -3.5430   -3.6700 c3        1 MOL      0.069110
     34 C13         2.5220   -2.1270   -3.3490 c         1 MOL      0.643841
     35 O7          1.5700   -1.7170   -3.9680 o         1 MOL     -0.690403
     36 O8          3.1520   -1.4300   -2.5400 o         1 MOL     -0.690403
     37 H13         3.0690   -3.4840   -0.7210 hn        1 MOL     -0.110189
     38 H14         3.8130   -5.2730   -3.0150 h1        1 MOL      0.059273
     39 H15         2.2140   -4.1400   -4.0390 hc        1 MOL     -0.018050
     40 H16         3.6950   -3.4050   -4.5360 hc        1 MOL     -0.018050
     41 N4          5.3660   -2.9860   -1.2390 n         1 MOL     -0.064267
     42 C14         6.6410   -2.6420   -0.7530 c3        1 MOL     -0.036813
     43 C15         7.2380   -1.4010   -1.3350 c         1 MOL      0.580494
     44 O9          8.1510   -1.5900   -2.1840 o         1 MOL     -0.564533
     45 H17         4.5650   -2.5500   -0.8070 hn        1 MOL      0.128177
     46 H18         7.3070   -3.5050   -0.8250 h1        1 MOL      0.022701
     47 H19         6.4830   -2.5740    0.3220 h1        1 MOL      0.022701
     48 N5          6.7730   -0.2040   -0.9070 n         1 MOL     -0.432715
     49 C16         7.2890    1.0860   -1.2190 c3        1 MOL      0.105572
     50 C17         7.0560    2.1680   -0.1650 c         1 MOL      0.352344
     51 O10         7.7990    3.2330   -0.1650 o         1 MOL     -0.546883
     52 C18         6.5700    1.4910   -2.5030 c3        1 MOL     -0.129460
     53 C19         5.0810    1.9190   -2.3640 c         1 MOL      0.555993
     54 N6          4.5210    2.8200   -3.1250 n         1 MOL     -0.605588
     55 O11         4.3820    1.5250   -1.4040 o         1 MOL     -0.685260
     56 H20         5.9550   -0.3360   -0.3310 hn        1 MOL      0.191781
     57 H21         8.3070    0.9890   -1.6030 h1        1 MOL      0.084480
     58 H22         6.6180    0.7130   -3.2620 hc        1 MOL      0.065696
     59 H23         7.1730    2.3270   -2.8470 hc        1 MOL      0.065696
     60 H24         5.0260    3.2420   -3.8890 hn        1 MOL      0.325023
     61 H25         3.5220    2.9870   -3.1210 hn        1 MOL      0.325023
     62 N7          6.1730    1.9330    0.8380 n         1 MOL     -0.017185
     63 C20         5.9750    2.7980    1.9730 c3        1 MOL     -0.363328
     64 C21         4.8530    3.8490    1.7540 c         1 MOL      0.670920
     65 O12         4.6870    4.7160    2.6560 o         1 MOL     -0.599817
     66 H26         5.6810    1.0490    0.8630 hn        1 MOL      0.159220
     67 H27         6.9250    3.2590    2.2580 h1        1 MOL      0.150112
     68 H28         5.6960    2.2410    2.8630 h1        1 MOL      0.150112
     69 N8          4.1410    3.8670    0.6090 n         1 MOL     -0.577096
     70 C22         2.9790    4.7340    0.3720 c3        1 MOL      0.072262
     71 C23         1.6710    3.9600    0.1900 c         1 MOL      0.605103
     72 O13         1.6880    2.9590   -0.5720 o         1 MOL     -0.624023
     73 C24         3.1820    5.6910   -0.8020 c3        1 MOL      0.254736
     74 C25         2.2020    6.8600   -0.8320 c3        1 MOL     -0.314055
     75 O14         4.4940    6.3160   -1.0420 oh        1 MOL     -0.629543
     76 H29         4.3910    3.2490   -0.1480 hn        1 MOL      0.351035
     77 H30         2.7710    5.2350    1.3240 h1        1 MOL      0.033105
     78 H31         2.9670    5.0940   -1.6840 h1        1 MOL      0.121639
     79 H32         4.7010    6.7950   -0.2360 ho        1 MOL      0.409361
     80 H33         1.1810    6.4890   -0.7540 hc        1 MOL      0.072687
     81 H34         2.3730    7.6260   -0.0710 hc        1 MOL      0.072687
     82 H35         2.3230    7.3240   -1.8070 hc        1 MOL      0.072687
     83 N9          0.6090    4.2690    0.9380 n         1 MOL     -0.473857
     84 C26        -0.5790    3.3860    1.0070 c3        1 MOL      0.010037
     85 C27        -1.5040    3.4420   -0.2430 c         1 MOL      0.643607
     86 O15        -1.8070    4.5580   -0.7950 o         1 MOL     -0.619984
     87 C28        -1.3930    3.5260    2.2980 c3        1 MOL     -0.008415
     88 C29        -0.7590    2.6540    3.3960 c3        1 MOL      0.101870
     89 C30        -2.8660    3.0600    2.2490 c3        1 MOL     -0.163425
     90 C31        -1.1260    3.1690    4.7740 c3        1 MOL     -0.219662
     91 H36         0.5910    5.1730    1.3890 hn        1 MOL      0.293982
     92 H37        -0.2430    2.3560    0.9480 h1        1 MOL     -0.020161
     93 H38        -1.3930    4.5680    2.6140 hc        1 MOL      0.045191
     94 H39         0.3230    2.5670    3.2870 hc        1 MOL     -0.019188
     95 H40        -1.0880    1.6200    3.2620 hc        1 MOL     -0.019188
     96 H41        -2.9770    2.0140    1.9690 hc        1 MOL      0.028994
     97 H42        -3.3450    3.1230    3.2220 hc        1 MOL      0.028994
     98 H43        -3.3300    3.7490    1.5420 hc        1 MOL      0.028994
     99 H44        -0.9260    4.2260    4.9620 hc        1 MOL      0.048304
    100 H45        -2.2030    3.0980    4.9330 hc        1 MOL      0.048304
    101 H46        -0.6240    2.5750    5.5370 hc        1 MOL      0.048304
    102 N10        -1.9030    2.2670   -0.6590 n         1 MOL     -0.326380
    103 C32        -2.8510    1.9240   -1.7380 c3        1 MOL      0.089687
    104 C33        -4.2120    1.4980   -1.1380 c         1 MOL      0.453589
    105 O16        -4.3680    1.0500    0.0080 o         1 MOL     -0.366325
    106 C34        -2.1920    0.7780   -2.5650 c3        1 MOL     -0.165606
    107 C35        -0.7460    0.9360   -2.9730 c         1 MOL      0.746325
    108 O17         0.1610    0.5930   -2.1810 o         1 MOL     -0.700720
    109 O18        -0.4670    1.6230   -3.9670 o         1 MOL     -0.700720
    110 H47        -1.5560    1.4410   -0.2010 hn        1 MOL      0.212620
    111 H48        -3.0650    2.8110   -2.3330 h1        1 MOL      0.055239
    112 H49        -2.8310    0.6370   -3.4360 hc        1 MOL      0.047688
    113 H50        -2.2330   -0.1440   -1.9750 hc        1 MOL      0.047688
    114 N11        -5.2000    1.4920   -2.0030 n         1 MOL     -0.727247
    115 C36        -6.5790    1.1810   -1.5100 c3        1 MOL      0.635790
    116 C37        -6.6880   -0.3230   -0.9390 c         1 MOL      0.160348
    117 O19        -7.4290   -0.4140    0.0140 o         1 MOL     -0.460417
    118 C38        -7.5830    1.5970   -2.6000 c3        1 MOL     -0.435026
    119 C39        -9.0080    1.2430   -2.2000 ca        1 MOL      0.185824
    120 C40        -9.5540    1.9620   -1.1300 ca        1 MOL     -0.196055
    121 C41        -9.8230    0.2050   -2.8330 ca        1 MOL     -0.196055
    122 C42       -10.8770    1.6570   -0.7740 ca        1 MOL     -0.091646
    123 C43       -11.1070    0.0590   -2.5160 ca        1 MOL     -0.091646
    124 C44       -11.6760    0.7920   -1.4920 ca        1 MOL     -0.126426
    125 H51        -5.1580    1.8530   -2.9440 hn        1 MOL      0.353208
    126 H52        -6.7260    1.8410   -0.6570 h1        1 MOL     -0.011872
    127 H53        -7.2540    0.9530   -3.4110 hc        1 MOL      0.111235
    128 H54        -7.5900    2.6600   -2.8510 hc        1 MOL      0.111235
    129 H55        -8.8740    2.5940   -0.5680 ha        1 MOL      0.120065
    130 H56        -9.4170   -0.4130   -3.6240 ha        1 MOL      0.120065
    131 H57       -11.2600    2.0370    0.1610 ha        1 MOL      0.102088
    132 H58       -11.7730   -0.6470   -3.0000 ha        1 MOL      0.102088
    133 H59       -12.7180    0.6270   -1.2420 ha        1 MOL      0.098735
    134 N12        -5.9540   -1.3400   -1.3900 n         1 MOL      0.013567
    135 C45        -6.0050   -2.6230   -0.6420 c3        1 MOL      0.036056
    136 C46        -5.4420   -2.5480    0.7630 c         1 MOL      0.168482
    137 O20        -5.7910   -3.4050    1.5570 o         1 MOL     -0.494719
    138 C47        -5.1680   -3.5730   -1.4210 c3        1 MOL     -0.094294
    139 C48        -5.2290   -2.9860   -2.8660 c3        1 MOL     -0.173159
    140 C49        -5.1890   -1.5070   -2.5640 c3        1 MOL      0.097955
    141 H60        -6.9970   -3.0700   -0.6810 h1        1 MOL      0.084973
    142 H61        -4.0950   -3.5050   -1.2100 hc        1 MOL      0.079434
    143 H62        -5.5370   -4.5980   -1.3780 hc        1 MOL      0.079434
    144 H63        -4.3450   -3.1830   -3.4660 hc        1 MOL      0.063341
    145 H64        -6.1820   -3.2290   -3.3420 hc        1 MOL      0.063341
    146 H65        -4.1860   -1.1240   -2.3950 h1        1 MOL     -0.010624
    147 H66        -5.7150   -0.9590   -3.3570 h1        1 MOL     -0.010624
    148 N13        -4.5350   -1.6480    1.0680 n         1 MOL      0.063228
    149 C50        -3.9080   -1.5660    2.4090 c3        1 MOL     -0.096773
    150 C51        -4.7500   -0.6950    3.2790 c         1 MOL      0.503368
    151 O21        -4.8040   -0.8430    4.4730 o         1 MOL     -0.598118
    152 C52        -2.4050   -1.0710    2.3030 c3        1 MOL      0.005272
    153 C53        -1.6300   -1.8290    1.2050 c3        1 MOL      0.048732
    154 C54        -0.3680   -1.1290    0.7030 c         1 MOL      0.635838
    155 O22        -0.2160    0.1070    0.9470 o         1 MOL     -0.721100
    156 O23         0.4410   -1.6430   -0.1270 o         1 MOL     -0.721100
    157 H67        -4.2630   -0.9070    0.4390 hn        1 MOL      0.062402
    158 H68        -3.9810   -2.5800    2.8070 h1        1 MOL      0.091799
    159 H69        -1.8920   -1.3120    3.2330 hc        1 MOL      0.033456
    160 H70        -2.4060    0.0100    2.2120 hc        1 MOL      0.033456
    161 H71        -2.2680   -2.0110    0.3380 hc        1 MOL      0.000359
    162 H72        -1.4780   -2.8550    1.5290 hc        1 MOL      0.000359
    163 N14        -5.3010    0.3760    2.7540 n         1 MOL     -0.051166
    164 C55        -6.3990    1.1490    3.3560 c3        1 MOL     -0.142978
    165 H73        -7.3070    1.0070    2.7700 h1        1 MOL      0.064242
    166 H74        -6.5690    0.8060    4.3770 h1        1 MOL      0.064242
    167 H75        -6.1370    2.2070    3.3680 h1        1 MOL      0.064242
    168 H76        -5.1030    0.4550    1.7710 hn        1 MOL      0.051083
    169 Ca1         2.1180    0.2280   -0.6260 Ca        1 MOL      1.732970
    170 O24         1.9180    0.9800    2.2550 oh        1 MOL     -0.739732
    171 H77         0.9770    0.8130    2.0930 ho        1 MOL      0.377719
    172 H78         1.9400    1.4240    3.0940 ho        1 MOL      0.377719
@<TRIPOS>BOND
     1    1    2 1   
     2    1    4 1   
     3    1    5 1   
     4    1    6 1   
     5    2    3 2   
     6    2    7 1   
     7    7    8 1   
     8    7   15 1   
     9    8    9 1   
    10    8   11 1   
    11    8   16 1   
    12    9   10 2   
    13    9   19 1   
    14   11   12 1   
    15   11   17 1   
    16   11   18 1   
    17   12   13 1   
    18   12   14 1   
    19   19   20 1   
    20   19   24 1   
    21   20   21 1   
    22   20   23 1   
    23   20   25 1   
    24   21   22 2   
    25   21   29 1   
    26   23   26 1   
    27   23   27 1   
    28   23   28 1   
    29   29   30 1   
    30   29   37 1   
    31   30   31 1   
    32   30   33 1   
    33   30   38 1   
    34   31   32 2   
    35   31   41 1   
    36   33   34 1   
    37   33   39 1   
    38   33   40 1   
    39   34   35 1   
    40   34   36 1   
    41   41   42 1   
    42   41   45 1   
    43   42   43 1   
    44   42   46 1   
    45   42   47 1   
    46   43   44 2   
    47   43   48 1   
    48   48   49 1   
    49   48   56 1   
    50   49   50 1   
    51   49   52 1   
    52   49   57 1   
    53   50   51 2   
    54   50   62 1   
    55   52   53 1   
    56   52   58 1   
    57   52   59 1   
    58   53   54 1   
    59   53   55 2   
    60   54   60 1   
    61   54   61 1   
    62   62   63 1   
    63   62   66 1   
    64   63   64 1   
    65   63   67 1   
    66   63   68 1   
    67   64   65 2   
    68   64   69 1   
    69   69   70 1   
    70   69   76 1   
    71   70   71 1   
    72   70   73 1   
    73   70   77 1   
    74   71   72 2   
    75   71   83 1   
    76   73   74 1   
    77   73   75 1   
    78   73   78 1   
    79   74   80 1   
    80   74   81 1   
    81   74   82 1   
    82   75   79 1   
    83   83   84 1   
    84   83   91 1   
    85   84   85 1   
    86   84   87 1   
    87   84   92 1   
    88   85   86 2   
    89   85  102 1   
    90   87   88 1   
    91   87   89 1   
    92   87   93 1   
    93   88   90 1   
    94   88   94 1   
    95   88   95 1   
    96   89   96 1   
    97   89   97 1   
    98   89   98 1   
    99   90   99 1   
   100   90  100 1   
   101   90  101 1   
   102  102  103 1   
   103  102  110 1   
   104  103  104 1   
   105  103  106 1   
   106  103  111 1   
   107  104  105 2   
   108  104  114 1   
   109  106  107 1   
   110  106  112 1   
   111  106  113 1   
   112  107  108 1   
   113  107  109 1   
   114  114  115 1   
   115  114  125 1   
   116  115  116 1   
   117  115  118 1   
   118  115  126 1   
   119  116  117 2   
   120  116  134 1   
   121  118  119 1   
   122  118  127 1   
   123  118  128 1   
   124  119  120 ar  
   125  119  121 ar  
   126  120  122 ar  
   127  120  129 1   
   128  121  123 ar  
   129  121  130 1   
   130  122  124 ar  
   131  122  131 1   
   132  123  124 ar  
   133  123  132 1   
   134  124  133 1   
   135  134  135 1   
   136  134  140 1   
   137  135  136 1   
   138  135  138 1   
   139  135  141 1   
   140  136  137 2   
   141  136  148 1   
   142  138  139 1   
   143  138  142 1   
   144  138  143 1   
   145  139  140 1   
   146  139  144 1   
   147  139  145 1   
   148  140  146 1   
   149  140  147 1   
   150  148  149 1   
   151  148  157 1   
   152  149  150 1   
   153  149  152 1   
   154  149  158 1   
   155  150  151 2   
   156  150  163 1   
   157  152  153 1   
   158  152  159 1   
   159  152  160 1   
   160  153  154 1   
   161  153  161 1   
   162  153  162 1   
   163  154  155 1   
   164  154  156 1   
   165  163  164 1   
   166  163  168 1   
   167  164  165 1   
   168  164  166 1   
   169  164  167 1   
   170  170  171 1   
   171  170  172 1   
@<TRIPOS>SUBSTRUCTURE
     1 MOL         1 TEMP              0 ****  ****    0 ROOT
