@<TRIPOS>MOLECULE
MOL
  172   171     1     0     0
SMALL
resp


@<TRIPOS>ATOM
      1 C1         -0.0640    4.1290    5.1210 c3        1 MOL     -0.361792
      2 C2         -0.8490    4.0930    3.7970 c         1 MOL      0.625753
      3 O1         -0.4900    4.7300    2.7900 o         1 MOL     -0.588639
      4 H1          0.9200    4.5660    4.9470 hc        1 MOL      0.098104
      5 H2         -0.6060    4.7330    5.8480 hc        1 MOL      0.098104
      6 H3          0.0520    3.1140    5.5030 hc        1 MOL      0.098104
      7 N1         -1.9360    3.3630    3.6730 n         1 MOL     -0.481042
      8 C3         -2.3400    2.6740    2.4410 c3        1 MOL      0.262120
      9 C4         -3.2640    3.6000    1.6610 c         1 MOL      0.353540
     10 O2         -4.5020    3.5940    1.8960 o         1 MOL     -0.479617
     11 C5         -3.1200    1.3780    2.8640 c3        1 MOL     -0.438456
     12 C6         -3.7550    0.6110    1.7290 c         1 MOL      0.943035
     13 O3         -3.2190    0.6970    0.6030 o         1 MOL     -0.732468
     14 O4         -4.6160   -0.2010    1.9020 o         1 MOL     -0.732468
     15 H4         -2.4220    3.0540    4.5040 hn        1 MOL      0.264484
     16 H5         -1.4430    2.4010    1.8830 h1        1 MOL      0.035567
     17 H6         -3.9720    1.6330    3.5010 hc        1 MOL      0.097804
     18 H7         -2.4260    0.7490    3.4030 hc        1 MOL      0.097804
     19 N2         -2.6100    4.4800    0.8760 n         1 MOL     -0.392509
     20 C7         -3.2370    5.6130    0.2100 c3        1 MOL      0.246414
     21 C8         -4.3140    5.1990   -0.8140 c         1 MOL      0.333863
     22 O5         -5.2420    5.9530   -1.0570 o         1 MOL     -0.531300
     23 C9         -2.2420    6.5700   -0.3710 c3        1 MOL     -0.442008
     24 H8         -1.6030    4.5030    0.9800 hn        1 MOL      0.358186
     25 H9         -3.7730    6.1570    0.9890 h1        1 MOL      0.037935
     26 H10        -1.7510    7.1230    0.4300 hc        1 MOL      0.114065
     27 H11        -1.4130    5.9660   -0.7420 hc        1 MOL      0.114065
     28 H12        -2.7420    7.1510   -1.1500 hc        1 MOL      0.114065
     29 N3         -4.1850    4.0310   -1.4540 n         1 MOL     -0.211927
     30 C10        -5.1540    3.5660   -2.4120 c3        1 MOL      0.181439
     31 C11        -6.3320    2.9000   -1.6720 c         1 MOL      0.437968
     32 O6         -7.4900    3.0410   -2.2030 o         1 MOL     -0.600692
     33 C12        -4.4640    2.6440   -3.4900 c3        1 MOL     -0.288372
     34 C13        -3.7020    1.4080   -3.0200 c         1 MOL      0.886463
     35 O7         -4.2690    0.6910   -2.2030 o         1 MOL     -0.767695
     36 O8         -2.5410    1.1500   -3.4190 o         1 MOL     -0.767695
     37 H13        -3.4790    3.3760   -1.1660 hn        1 MOL      0.181309
     38 H14        -5.6540    4.3880   -2.9260 h1        1 MOL      0.046751
     39 H15        -3.6620    3.2000   -3.9720 hc        1 MOL      0.042193
     40 H16        -5.2510    2.3560   -4.1870 hc        1 MOL      0.042193
     41 N4         -6.1570    2.3440   -0.4730 n         1 MOL      0.032390
     42 C14        -7.2650    1.7690    0.2790 c3        1 MOL     -0.268135
     43 C15        -7.4740    0.3270   -0.1180 c         1 MOL      0.635663
     44 O9         -8.4830   -0.2030    0.2730 o         1 MOL     -0.630071
     45 H17        -5.2140    2.2380   -0.1240 hn        1 MOL     -0.077361
     46 H18        -8.1260    2.4170    0.1010 h1        1 MOL      0.122618
     47 H19        -6.9690    1.7860    1.3270 h1        1 MOL      0.122618
     48 N5         -6.6590   -0.3030   -0.9200 n         1 MOL     -0.302800
     49 C16        -6.8200   -1.7200   -1.2950 c3        1 MOL      0.015280
     50 C17        -6.5310   -2.8130   -0.2700 c         1 MOL      0.431321
     51 O10        -6.7370   -4.0140   -0.4820 o         1 MOL     -0.544085
     52 C18        -6.0860   -1.9270   -2.6430 c3        1 MOL     -0.411255
     53 C19        -4.5710   -2.2500   -2.5070 c         1 MOL      0.687227
     54 N6         -3.9180   -2.3590   -3.6240 n         1 MOL     -0.787952
     55 O11        -4.0600   -2.4090   -1.4030 o         1 MOL     -0.495382
     56 H20        -5.7620    0.1040   -1.1620 hn        1 MOL      0.176374
     57 H21        -7.8770   -1.7740   -1.5410 h1        1 MOL      0.112278
     58 H22        -6.2870   -1.1130   -3.3420 hc        1 MOL      0.127702
     59 H23        -6.6310   -2.8010   -3.0160 hc        1 MOL      0.127702
     60 H24        -4.3710   -2.3070   -4.5300 hn        1 MOL      0.356987
     61 H25        -2.9760   -2.7330   -3.5880 hn        1 MOL      0.356987
     62 N7         -6.0430   -2.3740    0.9710 n         1 MOL     -0.242377
     63 C20        -5.8600   -3.2710    2.0870 c3        1 MOL     -0.137978
     64 C21        -4.6450   -4.1990    2.0430 c         1 MOL      0.520510
     65 O12        -4.5660   -4.9470    3.0530 o         1 MOL     -0.607151
     66 H26        -5.6780   -1.4450    1.0540 hn        1 MOL      0.278289
     67 H27        -6.7130   -3.9480    2.0610 h1        1 MOL      0.085493
     68 H28        -5.8800   -2.7270    3.0300 h1        1 MOL      0.085493
     69 N8         -3.7260   -4.0340    1.1170 n         1 MOL     -0.076964
     70 C22        -2.4110   -4.5830    1.1300 c3        1 MOL     -0.366767
     71 C23        -1.3750   -3.4220    1.1090 c         1 MOL      1.081323
     72 O13        -1.7450   -2.2660    0.7340 o         1 MOL     -0.710892
     73 C24        -2.0720   -5.5640    0.0390 c3        1 MOL      0.500046
     74 C25        -3.0360   -6.7040    0.0080 c3        1 MOL     -0.390886
     75 O14        -2.1910   -4.9630   -1.2030 oh        1 MOL     -0.676654
     76 H29        -3.9100   -3.3010    0.4460 hn        1 MOL      0.145863
     77 H30        -2.2060   -5.0850    2.0860 h1        1 MOL      0.069820
     78 H31        -1.0680   -5.9880    0.1740 h1        1 MOL     -0.003095
     79 H32        -2.8950   -5.3850   -1.7110 ho        1 MOL      0.428506
     80 H33        -2.6400   -7.4110   -0.7260 hc        1 MOL      0.086887
     81 H34        -3.0850   -7.1990    0.9730 hc        1 MOL      0.086887
     82 H35        -4.0230   -6.3970   -0.3590 hc        1 MOL      0.086887
     83 N9         -0.2440   -3.6810    1.7170 n         1 MOL     -0.896774
     84 C26         0.9410   -2.8240    1.6330 c3        1 MOL      0.110800
     85 C27         1.5920   -2.9860    0.2790 c         1 MOL      0.492971
     86 O15         1.8430   -4.1420   -0.1840 o         1 MOL     -0.585965
     87 C28         1.9110   -3.0430    2.8430 c3        1 MOL      0.286867
     88 C29         1.4020   -3.5560    4.1770 c3        1 MOL      0.025903
     89 C30         2.6690   -1.7150    2.9970 c3        1 MOL     -0.368996
     90 C31         2.4520   -3.8630    5.2260 c3        1 MOL     -0.276754
     91 H36        -0.2040   -4.5790    2.1810 hn        1 MOL      0.363108
     92 H37         0.6420   -1.7840    1.7090 h1        1 MOL      0.097441
     93 H38         2.6500   -3.7980    2.5910 hc        1 MOL     -0.043920
     94 H39         0.8930   -4.5010    4.0110 hc        1 MOL      0.017669
     95 H40         0.7430   -2.7830    4.5890 hc        1 MOL      0.017669
     96 H41         3.5370   -1.8180    3.6380 hc        1 MOL      0.063473
     97 H42         3.0050   -1.3230    2.0410 hc        1 MOL      0.063473
     98 H43         2.1140   -0.9110    3.4750 hc        1 MOL      0.063473
     99 H44         2.9110   -2.9300    5.5410 hc        1 MOL      0.066232
    100 H45         2.1020   -4.2650    6.1640 hc        1 MOL      0.066232
    101 H46         3.2300   -4.4870    4.7920 hc        1 MOL      0.066232
    102 N10         2.0430   -1.8610   -0.3390 n         1 MOL     -0.241554
    103 C32         3.0500   -1.7960   -1.4260 c3        1 MOL      0.111476
    104 C33         4.4820   -1.3420   -0.9750 c         1 MOL      0.443383
    105 O16         4.6520   -0.8500    0.1440 o         1 MOL     -0.377456
    106 C34         2.5970   -0.9200   -2.5380 c3        1 MOL     -0.318405
    107 C35         1.1370   -1.1470   -3.0120 c         1 MOL      0.827003
    108 O17         0.8770   -2.1450   -3.6870 o         1 MOL     -0.725312
    109 O18         0.2770   -0.3090   -2.7050 o         1 MOL     -0.725312
    110 H47         1.6760   -1.0010    0.0500 hn        1 MOL      0.092724
    111 H48         3.2570   -2.7910   -1.8210 h1        1 MOL      0.060268
    112 H49         3.2730   -1.0980   -3.3760 hc        1 MOL      0.062086
    113 H50         2.7480    0.1190   -2.2400 hc        1 MOL      0.062086
    114 N11         5.4920   -1.3680   -1.8290 n         1 MOL     -0.656573
    115 C36         6.8810   -1.1200   -1.2890 c3        1 MOL      0.464308
    116 C37         7.0490    0.3670   -0.7710 c         1 MOL      0.284638
    117 O19         7.5500    0.5260    0.3180 o         1 MOL     -0.483222
    118 C38         7.8980   -1.4760   -2.3680 c3        1 MOL     -0.319736
    119 C39         9.2800   -1.2650   -1.8130 ca        1 MOL      0.174917
    120 C40        10.1970   -0.4500   -2.4900 ca        1 MOL     -0.194257
    121 C41         9.6630   -1.9110   -0.6180 ca        1 MOL     -0.194257
    122 C42        11.4360   -0.2440   -1.9380 ca        1 MOL     -0.128182
    123 C43        10.9850   -1.8740   -0.1370 ca        1 MOL     -0.128182
    124 C44        11.8010   -0.9190   -0.7570 ca        1 MOL     -0.079080
    125 H51         5.4030   -1.5590   -2.8200 hn        1 MOL      0.340923
    126 H52         7.0640   -1.8570   -0.5050 h1        1 MOL      0.042958
    127 H53         7.8110   -0.8310   -3.2440 hc        1 MOL      0.077340
    128 H54         7.8360   -2.5150   -2.6970 hc        1 MOL      0.077340
    129 H55         9.9000    0.1120   -3.3610 ha        1 MOL      0.126874
    130 H56         9.0130   -2.5310   -0.0250 ha        1 MOL      0.126874
    131 H57        12.0900    0.3880   -2.5120 ha        1 MOL      0.119267
    132 H58        11.3100   -2.3200    0.7890 ha        1 MOL      0.119267
    133 H59        12.7700   -0.7220   -0.3340 ha        1 MOL      0.080855
    134 N12         6.4700    1.4490   -1.3660 n         1 MOL     -0.117051
    135 C45         6.5770    2.8340   -0.8490 c3        1 MOL      0.069773
    136 C46         5.6380    3.1030    0.3740 c         1 MOL      0.295213
    137 O20         5.9550    3.8670    1.2820 o         1 MOL     -0.501820
    138 C47         6.1850    3.7320   -2.0120 c3        1 MOL     -0.076885
    139 C48         6.1060    2.8470   -3.1870 c3        1 MOL      0.090717
    140 C49         5.8160    1.4750   -2.7320 c3        1 MOL     -0.079285
    141 H60         7.5950    3.0950   -0.5710 h1        1 MOL      0.067079
    142 H61         5.2720    4.2820   -1.7770 hc        1 MOL      0.033267
    143 H62         6.9880    4.4540   -2.1780 hc        1 MOL      0.033267
    144 H63         5.3980    3.1490   -3.9610 hc        1 MOL     -0.012656
    145 H64         7.0770    2.8160   -3.6810 hc        1 MOL     -0.012656
    146 H65         4.7490    1.3080   -2.6190 h1        1 MOL      0.056708
    147 H66         6.2570    0.7820   -3.4530 h1        1 MOL      0.056708
    148 N13         4.6120    2.3120    0.4830 n         1 MOL     -0.129893
    149 C50         3.8590    2.3080    1.7560 c3        1 MOL     -0.163900
    150 C51         4.6390    1.6390    2.8670 c         1 MOL      0.499982
    151 O21         4.6290    2.1080    3.9590 o         1 MOL     -0.576910
    152 C52         2.5300    1.5740    1.3460 c3        1 MOL     -0.028242
    153 C53         1.6050    2.2490    0.3110 c3        1 MOL     -0.043473
    154 C54         0.4150    1.4270    0.0470 c         1 MOL      0.749520
    155 O22        -0.5180    1.9510   -0.5330 o         1 MOL     -0.760000
    156 O23         0.4420    0.1760    0.2390 o         1 MOL     -0.760000
    157 H67         4.3590    1.6090   -0.1970 hn        1 MOL      0.225303
    158 H68         3.4960    3.3180    1.9750 h1        1 MOL      0.129174
    159 H69         1.8590    1.5070    2.2010 hc        1 MOL      0.063001
    160 H70         2.8450    0.6010    0.9660 hc        1 MOL      0.063001
    161 H71         2.1900    2.3750   -0.6020 hc        1 MOL      0.000887
    162 H72         1.2880    3.2510    0.6070 hc        1 MOL      0.000887
    163 N14         5.3660    0.5590    2.6340 n         1 MOL      0.056821
    164 C55         6.3540   -0.0960    3.5280 c3        1 MOL     -0.267938
    165 H73         7.3250    0.3850    3.4110 h1        1 MOL      0.094561
    166 H74         6.0270   -0.0030    4.5630 h1        1 MOL      0.094561
    167 H75         6.4380   -1.1510    3.2660 h1        1 MOL      0.094561
    168 H76         5.1610    0.2130    1.7050 hn        1 MOL     -0.020201
    169 Ca1        -1.8290   -0.2910   -1.2880 Ca        1 MOL      1.781791
    170 O24        -1.3590   -2.7290   -2.2770 oh        1 MOL     -0.947801
    171 H77        -1.4330   -3.6240   -1.9420 ho        1 MOL      0.431869
    172 H78        -0.6100   -2.7540   -2.8670 ho        1 MOL      0.431869
@<TRIPOS>BOND
     1    1    2 1   
     2    1    4 1   
     3    1    5 1   
     4    1    6 1   
     5    2    3 2   
     6    2    7 1   
     7    7    8 1   
     8    7   15 1   
     9    8    9 1   
    10    8   11 1   
    11    8   16 1   
    12    9   10 2   
    13    9   19 1   
    14   11   12 1   
    15   11   17 1   
    16   11   18 1   
    17   12   13 1   
    18   12   14 1   
    19   19   20 1   
    20   19   24 1   
    21   20   21 1   
    22   20   23 1   
    23   20   25 1   
    24   21   22 2   
    25   21   29 1   
    26   23   26 1   
    27   23   27 1   
    28   23   28 1   
    29   29   30 1   
    30   29   37 1   
    31   30   31 1   
    32   30   33 1   
    33   30   38 1   
    34   31   32 2   
    35   31   41 1   
    36   33   34 1   
    37   33   39 1   
    38   33   40 1   
    39   34   35 1   
    40   34   36 1   
    41   41   42 1   
    42   41   45 1   
    43   42   43 1   
    44   42   46 1   
    45   42   47 1   
    46   43   44 2   
    47   43   48 1   
    48   48   49 1   
    49   48   56 1   
    50   49   50 1   
    51   49   52 1   
    52   49   57 1   
    53   50   51 2   
    54   50   62 1   
    55   52   53 1   
    56   52   58 1   
    57   52   59 1   
    58   53   54 1   
    59   53   55 2   
    60   54   60 1   
    61   54   61 1   
    62   62   63 1   
    63   62   66 1   
    64   63   64 1   
    65   63   67 1   
    66   63   68 1   
    67   64   65 2   
    68   64   69 1   
    69   69   70 1   
    70   69   76 1   
    71   70   71 1   
    72   70   73 1   
    73   70   77 1   
    74   71   72 2   
    75   71   83 1   
    76   73   74 1   
    77   73   75 1   
    78   73   78 1   
    79   74   80 1   
    80   74   81 1   
    81   74   82 1   
    82   75   79 1   
    83   83   84 1   
    84   83   91 1   
    85   84   85 1   
    86   84   87 1   
    87   84   92 1   
    88   85   86 2   
    89   85  102 1   
    90   87   88 1   
    91   87   89 1   
    92   87   93 1   
    93   88   90 1   
    94   88   94 1   
    95   88   95 1   
    96   89   96 1   
    97   89   97 1   
    98   89   98 1   
    99   90   99 1   
   100   90  100 1   
   101   90  101 1   
   102  102  103 1   
   103  102  110 1   
   104  103  104 1   
   105  103  106 1   
   106  103  111 1   
   107  104  105 2   
   108  104  114 1   
   109  106  107 1   
   110  106  112 1   
   111  106  113 1   
   112  107  108 1   
   113  107  109 1   
   114  114  115 1   
   115  114  125 1   
   116  115  116 1   
   117  115  118 1   
   118  115  126 1   
   119  116  117 2   
   120  116  134 1   
   121  118  119 1   
   122  118  127 1   
   123  118  128 1   
   124  119  120 ar  
   125  119  121 ar  
   126  120  122 ar  
   127  120  129 1   
   128  121  123 ar  
   129  121  130 1   
   130  122  124 ar  
   131  122  131 1   
   132  123  124 ar  
   133  123  132 1   
   134  124  133 1   
   135  134  135 1   
   136  134  140 1   
   137  135  136 1   
   138  135  138 1   
   139  135  141 1   
   140  136  137 2   
   141  136  148 1   
   142  138  139 1   
   143  138  142 1   
   144  138  143 1   
   145  139  140 1   
   146  139  144 1   
   147  139  145 1   
   148  140  146 1   
   149  140  147 1   
   150  148  149 1   
   151  148  157 1   
   152  149  150 1   
   153  149  152 1   
   154  149  158 1   
   155  150  151 2   
   156  150  163 1   
   157  152  153 1   
   158  152  159 1   
   159  152  160 1   
   160  153  154 1   
   161  153  161 1   
   162  153  162 1   
   163  154  155 1   
   164  154  156 1   
   165  163  164 1   
   166  163  168 1   
   167  164  165 1   
   168  164  166 1   
   169  164  167 1   
   170  170  171 1   
   171  170  172 1   
@<TRIPOS>SUBSTRUCTURE
     1 MOL         1 TEMP              0 ****  ****    0 ROOT
