@<TRIPOS>MOLECULE
MOL
  189   185     1     0     0
SMALL
resp


@<TRIPOS>ATOM
      1 C1          0.9850   -4.0370    6.0920 c3        1 MOL     -0.489183
      2 C2          1.3170   -3.4340    4.6960 c         1 MOL      0.705645
      3 O1          1.4610   -2.2050    4.5270 o         1 MOL     -0.594908
      4 H1          0.5320   -5.0210    5.9630 hc        1 MOL      0.128891
      5 H2          1.9010   -4.1330    6.6740 hc        1 MOL      0.128891
      6 H3          0.2880   -3.3830    6.6150 hc        1 MOL      0.128891
      7 N1          1.5910   -4.3150    3.7290 n         1 MOL     -0.528052
      8 C3          2.0980   -4.0230    2.4330 c3        1 MOL      0.227320
      9 C4          1.8110   -5.0770    1.3530 c         1 MOL      0.425938
     10 O2          2.0050   -6.3010    1.6370 o         1 MOL     -0.582163
     11 C5          3.6280   -3.8310    2.5320 c3        1 MOL     -0.316931
     12 C6          4.2590   -3.2700    1.2510 c         1 MOL      0.705575
     13 O3          5.4550   -3.5960    1.0080 o         1 MOL     -0.680701
     14 O4          3.6810   -2.5900    0.4200 o         1 MOL     -0.680701
     15 H4          1.3930   -5.2970    3.8410 hn        1 MOL      0.280049
     16 H5          1.7530   -3.0700    2.0200 h1        1 MOL      0.011913
     17 H6          4.0610   -4.7730    2.8590 hc        1 MOL      0.086000
     18 H7          3.7940   -3.1410    3.3590 hc        1 MOL      0.086000
     19 N2          1.5130   -4.7080    0.1220 n         1 MOL      0.037420
     20 C7          1.2960   -5.6440   -0.9670 c3        1 MOL     -0.307414
     21 C8          2.0010   -5.1560   -2.2870 c         1 MOL      0.500180
     22 O5          1.8920   -5.8430   -3.2740 o         1 MOL     -0.581665
     23 C9         -0.1740   -6.0610   -1.3300 c3        1 MOL      0.334673
     24 C10        -1.0790   -4.8170   -1.4480 c3        1 MOL     -0.041670
     25 C11        -0.7370   -6.9080   -0.2590 c3        1 MOL     -0.187059
     26 C12        -2.4290   -5.2460   -2.0320 c3        1 MOL     -0.360840
     27 H8          1.3900   -3.7090   -0.0280 hn        1 MOL      0.010016
     28 H9          1.8050   -6.5910   -0.8470 h1        1 MOL      0.121610
     29 H10        -0.2010   -6.6470   -2.2480 hc        1 MOL     -0.016809
     30 H11        -0.6620   -3.9690   -1.9850 hc        1 MOL      0.062499
     31 H12        -1.3740   -4.4450   -0.4710 hc        1 MOL      0.062499
     32 H13        -1.5330   -7.5440   -0.6390 hc        1 MOL      0.020089
     33 H14         0.0410   -7.5670    0.1460 hc        1 MOL      0.020089
     34 H15        -1.0170   -6.2470    0.5560 hc        1 MOL      0.020089
     35 H16        -2.9410   -6.0260   -1.4680 hc        1 MOL      0.084815
     36 H17        -3.1600   -4.4520   -1.9450 hc        1 MOL      0.084815
     37 H18        -2.1920   -5.6130   -3.0350 hc        1 MOL      0.084815
     38 N3          2.6570   -4.0070   -2.3770 n         1 MOL     -0.288073
     39 C13         3.3290   -3.4950   -3.6140 c3        1 MOL      0.004245
     40 C14         4.7700   -2.9650   -3.4230 c         1 MOL      0.423513
     41 O6          5.3890   -2.6860   -4.4260 o         1 MOL     -0.549684
     42 C15         2.5200   -2.2960   -4.2240 c3        1 MOL     -0.321223
     43 C16         2.2130   -1.2550   -3.2780 c         1 MOL      0.870786
     44 O7          3.0750   -0.9700   -2.4140 o         1 MOL     -0.737393
     45 O8          1.1210   -0.6330   -3.4320 o         1 MOL     -0.737393
     46 H19         2.8150   -3.5760   -1.4850 hn        1 MOL      0.224625
     47 H20         3.3740   -4.3550   -4.2660 h1        1 MOL      0.105730
     48 H21         1.6640   -2.7520   -4.7120 hc        1 MOL      0.087534
     49 H22         3.0970   -1.7630   -4.9860 hc        1 MOL      0.087534
     50 N4          5.2580   -2.9120   -2.1990 n         1 MOL     -0.216608
     51 C17         6.6470   -2.5960   -1.9040 c3        1 MOL     -0.201092
     52 C18         7.0670   -1.1060   -1.9870 c         1 MOL      0.533727
     53 O9          8.1950   -0.7250   -1.7080 o         1 MOL     -0.639135
     54 H23         4.6610   -3.0080   -1.3920 hn        1 MOL      0.171892
     55 H24         7.3250   -3.1610   -2.5350 h1        1 MOL      0.105500
     56 H25         6.7670   -2.7580   -0.8390 h1        1 MOL      0.105500
     57 N5          6.2000   -0.1840   -2.2290 n         1 MOL     -0.317324
     58 C19         6.4810    1.2430   -2.5330 c3        1 MOL      0.082686
     59 C20         7.0420    2.2030   -1.3210 c         1 MOL      0.515387
     60 O10         7.6410    3.2030   -1.6540 o         1 MOL     -0.559479
     61 C21         5.3120    1.9230   -3.2310 c3        1 MOL     -0.307749
     62 C22         3.9880    1.9870   -2.4230 c         1 MOL      0.788305
     63 O11         3.9670    1.5860   -1.2140 o         1 MOL     -0.715221
     64 O12         2.9630    2.4930   -3.0170 o         1 MOL     -0.715221
     65 H26         5.2870   -0.5000   -2.5120 hn        1 MOL      0.285218
     66 H27         7.3140    1.2720   -3.2280 h1        1 MOL      0.056893
     67 H28         5.0660    1.3360   -4.1150 hc        1 MOL      0.076634
     68 H29         5.6440    2.9150   -3.5390 hc        1 MOL      0.076634
     69 N6          6.8140    1.7490   -0.0740 n         1 MOL     -0.360685
     70 C23         7.1940    2.6250    1.0920 c3        1 MOL     -0.017459
     71 C24         6.0640    3.5910    1.5740 c         1 MOL      0.450091
     72 O13         6.3020    4.4660    2.3910 o         1 MOL     -0.590120
     73 H30         6.2600    0.9350    0.1260 hn        1 MOL      0.257718
     74 H31         8.0280    3.2980    0.9150 h1        1 MOL      0.062197
     75 H32         7.6730    2.0100    1.8650 h1        1 MOL      0.062197
     76 N7          4.8740    3.4350    1.0230 n         1 MOL     -0.217601
     77 C25         3.6390    4.1570    1.4870 c3        1 MOL      0.017676
     78 C26         2.4700    3.2360    1.5660 c         1 MOL      0.489022
     79 O14         2.6040    2.0700    1.1900 o         1 MOL     -0.417826
     80 C27         3.3360    5.3640    0.4680 c3        1 MOL     -0.016703
     81 C28         4.3470    6.5040    0.3740 c3        1 MOL     -0.262232
     82 C29         3.8060    7.5990   -0.5910 c         1 MOL      0.694544
     83 N8          4.6490    8.2490   -1.4170 n         1 MOL     -0.828618
     84 O15         2.7300    8.1560   -0.4940 o         1 MOL     -0.567141
     85 H33         4.6090    2.6690    0.4200 hn        1 MOL      0.145538
     86 H34         3.8530    4.5510    2.4790 h1        1 MOL      0.062907
     87 H35         2.4540    5.9210    0.7840 hc        1 MOL      0.039081
     88 H36         3.0360    4.8980   -0.4780 hc        1 MOL      0.039081
     89 H37         5.3350    6.1810    0.0620 hc        1 MOL      0.101135
     90 H38         4.5460    7.0060    1.3280 hc        1 MOL      0.101135
     91 H39         5.6530    8.1840   -1.4380 hn        1 MOL      0.354985
     92 H40         4.1340    8.8700   -2.0290 hn        1 MOL      0.354985
     93 N9          1.3790    3.7540    2.2500 n         1 MOL     -0.540197
     94 C30         0.1750    2.9470    2.5040 c3        1 MOL      0.041720
     95 C31        -1.0350    3.4620    1.5670 c         1 MOL      0.603082
     96 O16        -1.3440    4.6340    1.6830 o         1 MOL     -0.596498
     97 C32        -0.0850    3.0000    3.9970 c3        1 MOL      0.191066
     98 C33        -1.5140    2.6710    4.5520 c3        1 MOL     -0.242751
     99 C34         0.9920    2.2190    4.8800 c3        1 MOL     -0.242751
    100 H41         1.3190    4.7190    2.5470 hn        1 MOL      0.314531
    101 H42         0.3460    1.9030    2.2160 h1        1 MOL      0.068219
    102 H43         0.0860    4.0240    4.3090 hc        1 MOL     -0.024561
    103 H44        -1.8400    1.6940    4.1810 hc        1 MOL      0.053931
    104 H45        -1.4390    2.5600    5.6360 hc        1 MOL      0.053931
    105 H46        -2.2690    3.4430    4.3810 hc        1 MOL      0.053931
    106 H47         0.9280    2.4660    5.9380 hc        1 MOL      0.053931
    107 H48         0.9150    1.1450    4.6930 hc        1 MOL      0.053931
    108 H49         2.0150    2.3960    4.5440 hc        1 MOL      0.053931
    109 N10        -1.5480    2.5140    0.8390 n         1 MOL     -0.416765
    110 C35        -2.7660    2.6780    0.0020 c3        1 MOL      0.087511
    111 C36        -4.0490    2.4510    0.8220 c         1 MOL      0.247548
    112 O17        -3.9380    1.9470    1.9580 o         1 MOL     -0.353774
    113 C37        -2.6470    1.6190   -1.0640 c3        1 MOL     -0.082257
    114 C38        -3.7270    1.8610   -2.0530 c         1 MOL      0.642908
    115 N11        -3.8910    3.0150   -2.7190 n         1 MOL     -0.764077
    116 O18        -4.5370    0.9810   -2.2990 o         1 MOL     -0.576870
    117 H50        -1.1560    1.5800    0.8980 hn        1 MOL      0.243831
    118 H51        -2.8020    3.6920   -0.4110 h1        1 MOL      0.051140
    119 H52        -2.8530    0.6820   -0.5580 hc        1 MOL      0.075376
    120 H53        -1.6620    1.6560   -1.5250 hc        1 MOL      0.075376
    121 H54        -3.4190    3.8880   -2.5790 hn        1 MOL      0.348705
    122 H55        -4.6340    2.8920   -3.3930 hn        1 MOL      0.348705
    123 N12        -5.2200    2.8270    0.2380 n         1 MOL     -0.126064
    124 C39        -6.4730    2.3140    0.8180 c3        1 MOL     -0.080733
    125 C40        -6.6590    0.7950    0.8660 c         1 MOL      0.591287
    126 O19        -7.0360    0.2920    1.8660 o         1 MOL     -0.559601
    127 C41        -7.6610    3.0610    0.0890 c3        1 MOL     -0.160714
    128 C42        -7.6600    2.9330   -1.4220 ca        1 MOL      0.008281
    129 C43        -6.8770    3.7540   -2.2110 ca        1 MOL     -0.098004
    130 C44        -8.4530    1.9040   -2.0100 ca        1 MOL     -0.098004
    131 C45        -6.9570    3.6340   -3.6200 ca        1 MOL     -0.360377
    132 C46        -8.4300    1.7270   -3.4120 ca        1 MOL     -0.360377
    133 C47        -7.8540    2.6850   -4.1970 ca        1 MOL      0.518181
    134 O20        -8.1730    2.6940   -5.5180 oh        1 MOL     -0.640810
    135 H56        -5.3080    3.3750   -0.6130 hn        1 MOL      0.105693
    136 H57        -6.3710    2.6180    1.8630 h1        1 MOL      0.084496
    137 H58        -7.5310    4.1330    0.1980 hc        1 MOL      0.067103
    138 H59        -8.6240    2.7670    0.5000 hc        1 MOL      0.067103
    139 H60        -6.2550    4.5520   -1.8310 ha        1 MOL      0.135746
    140 H61        -8.9820    1.2400   -1.3450 ha        1 MOL      0.135746
    141 H62        -6.4860    4.3060   -4.3200 ha        1 MOL      0.145799
    142 H63        -8.9140    0.9050   -3.9230 ha        1 MOL      0.145799
    143 H64        -8.6490    1.9380   -5.8840 ho        1 MOL      0.444012
    144 N13        -6.0920    0.0670   -0.1350 n         1 MOL     -0.225243
    145 C48        -6.1090   -1.4300   -0.0800 c3        1 MOL     -0.248505
    146 C49        -5.0870   -2.1020    0.8510 c         1 MOL      0.572444
    147 O21        -4.8640   -3.3150    0.8220 o         1 MOL     -0.545608
    148 C50        -6.0900   -2.0140   -1.5570 c3        1 MOL      0.156116
    149 C51        -7.3400   -1.7000   -2.4290 c3        1 MOL     -0.233285
    150 C52        -8.6110   -2.2120   -1.7840 c         1 MOL      0.680851
    151 O22        -8.6830   -3.3550   -1.2880 o         1 MOL     -0.718509
    152 O23        -9.6120   -1.4680   -1.7690 o         1 MOL     -0.718509
    153 H65        -5.6380    0.5250   -0.9120 hn        1 MOL      0.312474
    154 H66        -7.0450   -1.6250    0.4430 h1        1 MOL      0.187117
    155 H67        -6.0030   -3.1020   -1.5800 hc        1 MOL     -0.006880
    156 H68        -5.1970   -1.7160   -2.1090 hc        1 MOL     -0.006880
    157 H69        -7.2860   -2.0860   -3.4470 hc        1 MOL      0.033884
    158 H70        -7.4010   -0.6460   -2.6920 hc        1 MOL      0.033884
    159 N14        -4.4170   -1.2930    1.7140 n         1 MOL     -0.104810
    160 C53        -3.4770   -1.7580    2.7260 c3        1 MOL     -0.141449
    161 C54        -3.8140   -1.1590    4.1020 c         1 MOL      0.460495
    162 O24        -3.5450   -1.7950    5.0710 o         1 MOL     -0.560603
    163 C55        -2.0750   -1.2550    2.4580 c3        1 MOL     -0.063049
    164 C56        -1.4260   -2.0530    1.2730 c3        1 MOL     -0.068658
    165 C57        -0.2300   -1.2950    0.7520 c         1 MOL      0.789284
    166 O25         0.7200   -1.9240    0.2520 o         1 MOL     -0.768313
    167 O26        -0.0250   -0.1010    0.9790 o         1 MOL     -0.768313
    168 H71        -4.6550   -0.3040    1.6940 hn        1 MOL     -0.202555
    169 H72        -3.5080   -2.8490    2.7620 h1        1 MOL      0.124592
    170 H73        -1.4690   -1.2580    3.3640 hc        1 MOL      0.067521
    171 H74        -1.9860   -0.1820    2.2760 hc        1 MOL      0.067521
    172 H75        -2.1430   -2.1520    0.4580 hc        1 MOL      0.035902
    173 H76        -1.2010   -3.0700    1.6100 hc        1 MOL      0.035902
    174 N15        -4.5220   -0.0370    4.2380 n         1 MOL     -0.076587
    175 C58        -5.0170    0.5850    5.4430 c3        1 MOL     -0.075513
    176 H77        -4.8650    1.6630    5.3830 h1        1 MOL      0.036471
    177 H78        -6.0800    0.3740    5.5510 h1        1 MOL      0.036471
    178 H79        -4.4780    0.1900    6.3040 h1        1 MOL      0.036471
    179 H80        -4.6130    0.6070    3.4600 hn        1 MOL      0.193252
    180 Ca1         2.6430   -0.2450    0.0690 Ca        1 MOL      1.699847
    181 O27         2.9340   -0.5970    2.6710 oh        1 MOL     -0.844401
    182 O28         1.0310    1.2850   -1.5300 oh        1 MOL     -0.844401
    183 H81         2.1880   -1.0990    3.0020 ho        1 MOL      0.412888
    184 H82         0.9060    0.6160   -2.2060 ho        1 MOL      0.412888
    185 H83         3.4110   -0.3380    3.4570 ho        1 MOL      0.412888
    186 H84         1.5480    1.9720   -1.9670 ho        1 MOL      0.412888
    187 O29         5.3510   -0.4790    0.8200 oh        1 MOL     -0.844401
    188 H85         5.1780   -1.4220    0.7440 ho        1 MOL      0.412888
    189 H86         6.2870   -0.4300    1.0380 ho        1 MOL      0.412888
@<TRIPOS>BOND
     1    1    2 1   
     2    1    4 1   
     3    1    5 1   
     4    1    6 1   
     5    2    3 2   
     6    2    7 1   
     7    7    8 1   
     8    7   15 1   
     9    8    9 1   
    10    8   11 1   
    11    8   16 1   
    12    9   10 2   
    13    9   19 1   
    14   11   12 1   
    15   11   17 1   
    16   11   18 1   
    17   12   13 1   
    18   12   14 1   
    19   19   20 1   
    20   19   27 1   
    21   20   21 1   
    22   20   23 1   
    23   20   28 1   
    24   21   22 2   
    25   21   38 1   
    26   23   24 1   
    27   23   25 1   
    28   23   29 1   
    29   24   26 1   
    30   24   30 1   
    31   24   31 1   
    32   25   32 1   
    33   25   33 1   
    34   25   34 1   
    35   26   35 1   
    36   26   36 1   
    37   26   37 1   
    38   38   39 1   
    39   38   46 1   
    40   39   40 1   
    41   39   42 1   
    42   39   47 1   
    43   40   41 2   
    44   40   50 1   
    45   42   43 1   
    46   42   48 1   
    47   42   49 1   
    48   43   44 1   
    49   43   45 1   
    50   50   51 1   
    51   50   54 1   
    52   51   52 1   
    53   51   55 1   
    54   51   56 1   
    55   52   53 2   
    56   52   57 1   
    57   57   58 1   
    58   57   65 1   
    59   58   59 1   
    60   58   61 1   
    61   58   66 1   
    62   59   60 2   
    63   59   69 1   
    64   61   62 1   
    65   61   67 1   
    66   61   68 1   
    67   62   63 1   
    68   62   64 1   
    69   69   70 1   
    70   69   73 1   
    71   70   71 1   
    72   70   74 1   
    73   70   75 1   
    74   71   72 2   
    75   71   76 1   
    76   76   77 1   
    77   76   85 1   
    78   77   78 1   
    79   77   80 1   
    80   77   86 1   
    81   78   79 2   
    82   78   93 1   
    83   80   81 1   
    84   80   87 1   
    85   80   88 1   
    86   81   82 1   
    87   81   89 1   
    88   81   90 1   
    89   82   83 1   
    90   82   84 2   
    91   83   91 1   
    92   83   92 1   
    93   93   94 1   
    94   93  100 1   
    95   94   95 1   
    96   94   97 1   
    97   94  101 1   
    98   95   96 2   
    99   95  109 1   
   100   97   98 1   
   101   97   99 1   
   102   97  102 1   
   103   98  103 1   
   104   98  104 1   
   105   98  105 1   
   106   99  106 1   
   107   99  107 1   
   108   99  108 1   
   109  109  110 1   
   110  109  117 1   
   111  110  111 1   
   112  110  113 1   
   113  110  118 1   
   114  111  112 2   
   115  111  123 1   
   116  113  114 1   
   117  113  119 1   
   118  113  120 1   
   119  114  115 1   
   120  114  116 2   
   121  115  121 1   
   122  115  122 1   
   123  123  124 1   
   124  123  135 1   
   125  124  125 1   
   126  124  127 1   
   127  124  136 1   
   128  125  126 2   
   129  125  144 1   
   130  127  128 1   
   131  127  137 1   
   132  127  138 1   
   133  128  129 ar  
   134  128  130 ar  
   135  129  131 ar  
   136  129  139 1   
   137  130  132 ar  
   138  130  140 1   
   139  131  133 ar  
   140  131  141 1   
   141  132  133 ar  
   142  132  142 1   
   143  133  134 1   
   144  134  143 1   
   145  144  145 1   
   146  144  153 1   
   147  145  146 1   
   148  145  148 1   
   149  145  154 1   
   150  146  147 2   
   151  146  159 1   
   152  148  149 1   
   153  148  155 1   
   154  148  156 1   
   155  149  150 1   
   156  149  157 1   
   157  149  158 1   
   158  150  151 1   
   159  150  152 1   
   160  159  160 1   
   161  159  168 1   
   162  160  161 1   
   163  160  163 1   
   164  160  169 1   
   165  161  162 2   
   166  161  174 1   
   167  163  164 1   
   168  163  170 1   
   169  163  171 1   
   170  164  165 1   
   171  164  172 1   
   172  164  173 1   
   173  165  166 1   
   174  165  167 1   
   175  174  175 1   
   176  174  179 1   
   177  175  176 1   
   178  175  177 1   
   179  175  178 1   
   180  181  183 1   
   181  181  185 1   
   182  182  184 1   
   183  182  186 1   
   184  187  188 1   
   185  187  189 1   
@<TRIPOS>SUBSTRUCTURE
     1 MOL         1 TEMP              0 ****  ****    0 ROOT
