@<TRIPOS>MOLECULE
MOL
  189   185     1     0     0
SMALL
resp


@<TRIPOS>ATOM
      1 C1          0.9950   -2.1960    6.4260 c3        1 MOL     -0.574362
      2 C2          1.0640   -2.0410    4.8590 c         1 MOL      0.735640
      3 O1          0.5810   -1.1280    4.3400 o         1 MOL     -0.464480
      4 H1          0.5630   -1.2950    6.8620 hc        1 MOL      0.145437
      5 H2          0.3730   -3.0540    6.6790 hc        1 MOL      0.145437
      6 H3          1.9990   -2.3450    6.8220 hc        1 MOL      0.145437
      7 N1          1.4920   -3.1210    4.1610 n         1 MOL     -0.619032
      8 C3          2.0990   -3.0370    2.8640 c3        1 MOL      0.210270
      9 C4          2.1380   -4.4080    2.1570 c         1 MOL      0.581530
     10 O2          2.3100   -5.4060    2.8170 o         1 MOL     -0.597336
     11 C5          3.5930   -2.7480    3.0360 c3        1 MOL     -0.197411
     12 C6          4.3750   -2.3630    1.7950 c         1 MOL      0.712678
     13 O3          3.6950   -2.1550    0.7300 o         1 MOL     -0.661827
     14 O4          5.6580   -2.2260    1.8510 o         1 MOL     -0.661827
     15 H4          1.6910   -3.9430    4.7100 hn        1 MOL      0.295355
     16 H5          1.5860   -2.3390    2.2050 h1        1 MOL     -0.016473
     17 H6          4.0880   -3.5770    3.5270 hc        1 MOL      0.014585
     18 H7          3.6490   -1.8530    3.6540 hc        1 MOL      0.014585
     19 N2          2.0790   -4.5000    0.8260 n         1 MOL     -0.283850
     20 C7          2.2080   -5.6970    0.0350 c3        1 MOL     -0.182853
     21 C8          3.2230   -5.4650   -1.1170 c         1 MOL      0.585060
     22 O5          3.4450   -6.4650   -1.8210 o         1 MOL     -0.572311
     23 C9          0.8770   -6.2590   -0.4490 c3        1 MOL      0.142086
     24 C10         0.1820   -5.3670   -1.5180 c3        1 MOL     -0.116878
     25 C11        -0.1230   -6.4170    0.6720 c3        1 MOL     -0.062766
     26 C12        -1.1060   -5.9620   -2.1170 c3        1 MOL     -0.353936
     27 H8          2.0910   -3.6040    0.3410 hn        1 MOL      0.260768
     28 H9          2.7080   -6.4380    0.6570 h1        1 MOL      0.115507
     29 H10         1.0800   -7.2380   -0.8840 hc        1 MOL     -0.015755
     30 H11         0.8660   -5.1830   -2.3460 hc        1 MOL      0.083161
     31 H12         0.0180   -4.3890   -1.0660 hc        1 MOL      0.083161
     32 H13        -1.0680   -6.8570    0.3790 hc        1 MOL      0.008199
     33 H14         0.2420   -7.1140    1.4370 hc        1 MOL      0.008199
     34 H15        -0.3460   -5.4490    1.1350 hc        1 MOL      0.008199
     35 H16        -1.9270   -6.0850   -1.4180 hc        1 MOL      0.106908
     36 H17        -1.4400   -5.3130   -2.9190 hc        1 MOL      0.106908
     37 H18        -0.8480   -6.9280   -2.5720 hc        1 MOL      0.106908
     38 N3          3.8760   -4.2400   -1.3210 n         1 MOL     -0.569864
     39 C13         4.7630   -4.0000   -2.5190 c3        1 MOL      0.235158
     40 C14         6.1050   -3.2560   -2.2170 c         1 MOL      0.412153
     41 O6          7.0500   -3.6070   -2.8620 o         1 MOL     -0.562559
     42 C15         3.9270   -3.2500   -3.5320 c3        1 MOL     -0.263263
     43 C16         3.2450   -1.9780   -3.1700 c         1 MOL      0.809580
     44 O7          3.6500   -1.3980   -2.1850 o         1 MOL     -0.728100
     45 O8          2.3140   -1.5110   -3.8450 o         1 MOL     -0.728100
     46 H19         3.6620   -3.4280   -0.7560 hn        1 MOL      0.341176
     47 H20         5.0460   -4.9720   -2.9410 h1        1 MOL      0.046707
     48 H21         3.1180   -3.9490   -3.7440 hc        1 MOL      0.051831
     49 H22         4.5700   -3.1420   -4.4050 hc        1 MOL      0.051831
     50 N4          6.1610   -2.3390   -1.2500 n         1 MOL      0.026995
     51 C17         7.3740   -1.4850   -1.0220 c3        1 MOL     -0.282474
     52 C18         7.3980   -0.1470   -1.8140 c         1 MOL      0.594212
     53 O9          8.4780    0.3610   -2.1050 o         1 MOL     -0.619368
     54 H23         5.2660   -2.0320   -0.8910 hn        1 MOL     -0.172266
     55 H24         8.1970   -2.0770   -1.4090 h1        1 MOL      0.116044
     56 H25         7.4230   -1.2850    0.0500 h1        1 MOL      0.116044
     57 N5          6.2560    0.4110   -2.2250 n         1 MOL     -0.288223
     58 C19         6.2040    1.7290   -2.8790 c3        1 MOL     -0.029206
     59 C20         6.3170    2.9290   -1.9550 c         1 MOL      0.487378
     60 O10         6.4560    4.0920   -2.3600 o         1 MOL     -0.572607
     61 C21         4.9770    1.7640   -3.7930 c3        1 MOL     -0.176554
     62 C22         3.6740    1.8170   -2.9510 c         1 MOL      0.759242
     63 O11         3.7670    1.6940   -1.7320 o         1 MOL     -0.727706
     64 O12         2.5530    2.0490   -3.5270 o         1 MOL     -0.727706
     65 H26         5.4560   -0.0680   -1.8320 hn        1 MOL      0.270502
     66 H27         7.0560    1.9080   -3.5440 h1        1 MOL      0.098829
     67 H28         4.9770    0.9300   -4.4860 hc        1 MOL      0.050718
     68 H29         5.0280    2.6540   -4.4180 hc        1 MOL      0.050718
     69 N6          6.2900    2.6340   -0.6390 n         1 MOL     -0.203759
     70 C23         6.6730    3.4240    0.5490 c3        1 MOL     -0.224146
     71 C24         5.4270    4.2140    1.1380 c         1 MOL      0.570918
     72 O13         5.5980    4.9500    2.0920 o         1 MOL     -0.589410
     73 H30         6.0420    1.6830   -0.4250 hn        1 MOL      0.172802
     74 H31         7.4900    4.1020    0.3100 h1        1 MOL      0.103564
     75 H32         7.0390    2.8480    1.4000 h1        1 MOL      0.103564
     76 N7          4.2430    3.9520    0.6000 n         1 MOL     -0.454983
     77 C25         3.0230    4.5210    1.2020 c3        1 MOL      0.149065
     78 C26         1.9390    3.3710    1.3480 c         1 MOL      0.541902
     79 O14         1.8810    2.5420    0.4030 o         1 MOL     -0.679861
     80 C27         2.4020    5.6260    0.3650 c3        1 MOL     -0.178014
     81 C28         3.1200    6.9620    0.4500 c3        1 MOL     -0.478160
     82 C29         2.4390    7.9760   -0.5290 c         1 MOL      0.759029
     83 N8          2.7010    8.0470   -1.7640 n         1 MOL     -0.785004
     84 O15         1.7240    8.8640   -0.0920 o         1 MOL     -0.616206
     85 H33         4.1330    3.2760   -0.1420 hn        1 MOL      0.335979
     86 H34         3.2280    4.8530    2.2190 h1        1 MOL      0.025094
     87 H35         1.3920    5.6810    0.7760 hc        1 MOL      0.110236
     88 H36         2.2680    5.3310   -0.6730 hc        1 MOL      0.110236
     89 H37         4.1840    6.9620    0.1960 hc        1 MOL      0.162552
     90 H38         2.9710    7.2260    1.4980 hc        1 MOL      0.162552
     91 H39         3.4720    7.4750   -2.0690 hn        1 MOL      0.365711
     92 H40         2.1180    8.5610   -2.4060 hn        1 MOL      0.365711
     93 N9          1.1270    3.4990    2.3050 n         1 MOL     -0.478879
     94 C30        -0.0310    2.6260    2.6160 c3        1 MOL      0.010646
     95 C31        -1.1970    3.0220    1.7210 c         1 MOL      0.606508
     96 O16        -1.7080    4.1120    1.8560 o         1 MOL     -0.619367
     97 C32        -0.4320    2.7680    4.0940 c3        1 MOL      0.084324
     98 C33        -1.6060    1.8670    4.5270 c3        1 MOL     -0.191745
     99 C34         0.5990    2.1940    5.1020 c3        1 MOL     -0.191745
    100 H41         1.3840    4.2840    2.8900 hn        1 MOL      0.302398
    101 H42         0.1210    1.5630    2.4370 h1        1 MOL      0.147724
    102 H43        -0.6260    3.8180    4.2990 hc        1 MOL      0.012791
    103 H44        -1.8520    1.9250    5.5870 hc        1 MOL      0.035582
    104 H45        -2.5600    2.1360    4.0790 hc        1 MOL      0.035582
    105 H46        -1.4020    0.8260    4.2650 hc        1 MOL      0.035582
    106 H47         1.5030    2.8120    5.0660 hc        1 MOL      0.035582
    107 H48         0.1950    2.3550    6.0970 hc        1 MOL      0.035582
    108 H49         0.8140    1.1620    4.8480 hc        1 MOL      0.035582
    109 N10        -1.5280    2.1800    0.7640 n         1 MOL     -0.242350
    110 C35        -2.6670    2.4410   -0.0540 c3        1 MOL      0.193387
    111 C36        -4.0590    2.1510    0.7310 c         1 MOL      0.260002
    112 O17        -4.0760    1.2630    1.5750 o         1 MOL     -0.349176
    113 C37        -2.6160    1.6690   -1.4190 c3        1 MOL     -0.317724
    114 C38        -3.8790    1.7740   -2.2670 c         1 MOL      0.799101
    115 N11        -4.1410    2.9570   -2.7120 n         1 MOL     -0.807199
    116 O18        -4.6560    0.8490   -2.4490 o         1 MOL     -0.581319
    117 H50        -1.0830    1.2940    0.5840 hn        1 MOL      0.231601
    118 H51        -2.6490    3.5040   -0.2560 h1        1 MOL     -0.011427
    119 H52        -2.2850    0.6310   -1.3220 hc        1 MOL      0.092391
    120 H53        -1.7680    2.0240   -2.0060 hc        1 MOL      0.092391
    121 H54        -3.6570    3.7540   -2.3400 hn        1 MOL      0.356819
    122 H55        -4.9650    3.0320   -3.2960 hn        1 MOL      0.356819
    123 N12        -5.1740    2.7690    0.3460 n         1 MOL     -0.286121
    124 C39        -6.4480    2.2860    0.8120 c3        1 MOL      0.073042
    125 C40        -6.7100    0.7640    0.7480 c         1 MOL      0.528535
    126 O19        -7.2650    0.2320    1.6700 o         1 MOL     -0.604210
    127 C41        -7.5930    3.1210    0.1820 c3        1 MOL     -0.329174
    128 C42        -8.0190    2.6450   -1.1560 ca        1 MOL      0.283044
    129 C43        -8.9080    1.5750   -1.3270 ca        1 MOL     -0.373096
    130 C44        -7.5660    3.4100   -2.2670 ca        1 MOL     -0.373096
    131 C45        -9.2700    1.1940   -2.6350 ca        1 MOL     -0.098370
    132 C46        -7.8580    2.9750   -3.5400 ca        1 MOL     -0.098370
    133 C47        -8.7850    1.9370   -3.7650 ca        1 MOL      0.200646
    134 O20        -9.0930    1.5900   -5.0210 oh        1 MOL     -0.487841
    135 H56        -5.1690    3.4740   -0.3830 hn        1 MOL      0.188885
    136 H57        -6.4230    2.4600    1.8880 h1        1 MOL      0.059871
    137 H58        -7.4060    4.1920    0.2780 hc        1 MOL      0.101900
    138 H59        -8.4450    2.9840    0.8470 hc        1 MOL      0.101900
    139 H60        -9.3010    0.9810   -0.5100 ha        1 MOL      0.181994
    140 H61        -6.8770    4.2370   -2.1840 ha        1 MOL      0.181994
    141 H62        -9.9550    0.4010   -2.9000 ha        1 MOL      0.113955
    142 H63        -7.4190    3.5130   -4.3570 ha        1 MOL      0.113955
    143 H64        -9.4830    0.7120   -4.9410 ho        1 MOL      0.403200
    144 N13        -6.1610    0.0200   -0.2060 n         1 MOL     -0.086390
    145 C48        -6.3900   -1.4060   -0.2940 c3        1 MOL     -0.101811
    146 C49        -5.4480   -2.1910    0.7760 c         1 MOL      0.268851
    147 O21        -5.6580   -3.3850    1.1150 o         1 MOL     -0.511444
    148 C50        -6.2470   -1.7920   -1.7800 c3        1 MOL      0.205394
    149 C51        -6.7930   -3.2620   -1.9030 c3        1 MOL     -0.382816
    150 C52        -6.7560   -3.7650   -3.4290 c         1 MOL      0.744744
    151 O22        -5.6100   -3.8770   -3.8330 o         1 MOL     -0.748973
    152 O23        -7.7390   -3.9900   -4.1420 o         1 MOL     -0.748973
    153 H65        -5.8570    0.4950   -1.0490 hn        1 MOL      0.133010
    154 H66        -7.4390   -1.6310   -0.0910 h1        1 MOL      0.106748
    155 H67        -5.2380   -1.6050   -2.1530 hc        1 MOL      0.004443
    156 H68        -6.9550   -1.1900   -2.3490 hc        1 MOL      0.004443
    157 H69        -7.8160   -3.2850   -1.5170 hc        1 MOL      0.053202
    158 H70        -6.1830   -3.9600   -1.3390 hc        1 MOL      0.053202
    159 N14        -4.3840   -1.6000    1.3230 n         1 MOL     -0.044151
    160 C53        -3.4690   -2.1060    2.2960 c3        1 MOL     -0.265815
    161 C54        -4.0240   -1.7940    3.7350 c         1 MOL      0.499784
    162 O24        -3.5530   -2.3940    4.6800 o         1 MOL     -0.554193
    163 C55        -2.0710   -1.4430    2.0560 c3        1 MOL      0.473813
    164 C56        -1.6350   -1.8780    0.6570 c3        1 MOL     -0.420677
    165 C57        -0.2780   -1.2430    0.3160 c         1 MOL      0.755377
    166 O25        -0.0560   -0.0440    0.5960 o         1 MOL     -0.774672
    167 O26         0.6810   -1.9520   -0.0450 o         1 MOL     -0.774672
    168 H71        -4.2560   -0.6100    1.1350 hn        1 MOL      0.030805
    169 H72        -3.3340   -3.1870    2.2410 h1        1 MOL      0.139735
    170 H73        -1.4200   -1.9850    2.7510 hc        1 MOL     -0.082631
    171 H74        -2.0060   -0.3870    2.2870 hc        1 MOL     -0.082631
    172 H75        -2.3140   -1.5170   -0.1150 hc        1 MOL      0.157234
    173 H76        -1.6060   -2.9620    0.7020 hc        1 MOL      0.157234
    174 N15        -5.0160   -0.8810    3.9270 n         1 MOL     -0.146414
    175 C58        -5.5040   -0.4400    5.2140 c3        1 MOL     -0.208291
    176 H77        -5.9640    0.5430    5.1110 h1        1 MOL      0.081312
    177 H78        -6.2440   -1.1490    5.5850 h1        1 MOL      0.081312
    178 H79        -4.6730   -0.3800    5.9180 h1        1 MOL      0.081312
    179 H80        -5.2270   -0.2620    3.1440 hn        1 MOL      0.160848
    180 Ca1         2.4410   -0.0020   -0.3750 Ca        1 MOL      1.804699
    181 O27         4.9460    0.2600    0.7250 oh        1 MOL     -0.841757
    182 H81         5.3080   -0.5980    0.9410 ho        1 MOL      0.412467
    183 H82         5.2520    0.8380    1.4280 ho        1 MOL      0.412467
    184 O28         0.8180    0.2200   -2.3670 oh        1 MOL     -0.841757
    185 O29         2.3440    0.3960    2.3490 oh        1 MOL     -0.841757
    186 H83         1.1750    0.9700   -2.8420 ho        1 MOL      0.412467
    187 H84         1.5370    0.1270    2.7740 ho        1 MOL      0.412467
    188 H85         1.0610   -0.5410   -2.9100 ho        1 MOL      0.412467
    189 H86         2.9590    0.5360    3.0720 ho        1 MOL      0.412467
@<TRIPOS>BOND
     1    1    2 1   
     2    1    4 1   
     3    1    5 1   
     4    1    6 1   
     5    2    3 2   
     6    2    7 1   
     7    7    8 1   
     8    7   15 1   
     9    8    9 1   
    10    8   11 1   
    11    8   16 1   
    12    9   10 2   
    13    9   19 1   
    14   11   12 1   
    15   11   17 1   
    16   11   18 1   
    17   12   13 1   
    18   12   14 1   
    19   19   20 1   
    20   19   27 1   
    21   20   21 1   
    22   20   23 1   
    23   20   28 1   
    24   21   22 2   
    25   21   38 1   
    26   23   24 1   
    27   23   25 1   
    28   23   29 1   
    29   24   26 1   
    30   24   30 1   
    31   24   31 1   
    32   25   32 1   
    33   25   33 1   
    34   25   34 1   
    35   26   35 1   
    36   26   36 1   
    37   26   37 1   
    38   38   39 1   
    39   38   46 1   
    40   39   40 1   
    41   39   42 1   
    42   39   47 1   
    43   40   41 2   
    44   40   50 1   
    45   42   43 1   
    46   42   48 1   
    47   42   49 1   
    48   43   44 1   
    49   43   45 1   
    50   50   51 1   
    51   50   54 1   
    52   51   52 1   
    53   51   55 1   
    54   51   56 1   
    55   52   53 2   
    56   52   57 1   
    57   57   58 1   
    58   57   65 1   
    59   58   59 1   
    60   58   61 1   
    61   58   66 1   
    62   59   60 2   
    63   59   69 1   
    64   61   62 1   
    65   61   67 1   
    66   61   68 1   
    67   62   63 1   
    68   62   64 1   
    69   69   70 1   
    70   69   73 1   
    71   70   71 1   
    72   70   74 1   
    73   70   75 1   
    74   71   72 2   
    75   71   76 1   
    76   76   77 1   
    77   76   85 1   
    78   77   78 1   
    79   77   80 1   
    80   77   86 1   
    81   78   79 2   
    82   78   93 1   
    83   80   81 1   
    84   80   87 1   
    85   80   88 1   
    86   81   82 1   
    87   81   89 1   
    88   81   90 1   
    89   82   83 1   
    90   82   84 2   
    91   83   91 1   
    92   83   92 1   
    93   93   94 1   
    94   93  100 1   
    95   94   95 1   
    96   94   97 1   
    97   94  101 1   
    98   95   96 2   
    99   95  109 1   
   100   97   98 1   
   101   97   99 1   
   102   97  102 1   
   103   98  103 1   
   104   98  104 1   
   105   98  105 1   
   106   99  106 1   
   107   99  107 1   
   108   99  108 1   
   109  109  110 1   
   110  109  117 1   
   111  110  111 1   
   112  110  113 1   
   113  110  118 1   
   114  111  112 2   
   115  111  123 1   
   116  113  114 1   
   117  113  119 1   
   118  113  120 1   
   119  114  115 1   
   120  114  116 2   
   121  115  121 1   
   122  115  122 1   
   123  123  124 1   
   124  123  135 1   
   125  124  125 1   
   126  124  127 1   
   127  124  136 1   
   128  125  126 2   
   129  125  144 1   
   130  127  128 1   
   131  127  137 1   
   132  127  138 1   
   133  128  129 ar  
   134  128  130 ar  
   135  129  131 ar  
   136  129  139 1   
   137  130  132 ar  
   138  130  140 1   
   139  131  133 ar  
   140  131  141 1   
   141  132  133 ar  
   142  132  142 1   
   143  133  134 1   
   144  134  143 1   
   145  144  145 1   
   146  144  153 1   
   147  145  146 1   
   148  145  148 1   
   149  145  154 1   
   150  146  147 2   
   151  146  159 1   
   152  148  149 1   
   153  148  155 1   
   154  148  156 1   
   155  149  150 1   
   156  149  157 1   
   157  149  158 1   
   158  150  151 1   
   159  150  152 1   
   160  159  160 1   
   161  159  168 1   
   162  160  161 1   
   163  160  163 1   
   164  160  169 1   
   165  161  162 2   
   166  161  174 1   
   167  163  164 1   
   168  163  170 1   
   169  163  171 1   
   170  164  165 1   
   171  164  172 1   
   172  164  173 1   
   173  165  166 1   
   174  165  167 1   
   175  174  175 1   
   176  174  179 1   
   177  175  176 1   
   178  175  177 1   
   179  175  178 1   
   180  181  182 1   
   181  181  183 1   
   182  184  186 1   
   183  184  188 1   
   184  185  187 1   
   185  185  189 1   
@<TRIPOS>SUBSTRUCTURE
     1 MOL         1 TEMP              0 ****  ****    0 ROOT
