@<TRIPOS>MOLECULE
MOL
  179   176     1     0     0
SMALL
resp


@<TRIPOS>ATOM
      1 C1          2.0740    2.1170    5.2370 c3        1 MOL     -0.230210
      2 C2          1.3670    1.8400    3.9240 c         1 MOL      0.622449
      3 O1          1.9590    1.0100    3.1930 o         1 MOL     -0.539233
      4 H1          2.6000    1.2200    5.5610 hc        1 MOL      0.054985
      5 H2          2.7880    2.9280    5.1020 hc        1 MOL      0.054985
      6 H3          1.3400    2.3990    5.9930 hc        1 MOL      0.054985
      7 N1          0.1780    2.3950    3.6760 n         1 MOL     -0.589605
      8 C3         -0.5110    2.2250    2.4640 c3        1 MOL      0.288651
      9 C4         -0.4640    3.5710    1.6700 c         1 MOL      0.317971
     10 O2         -1.3900    4.4300    1.7050 o         1 MOL     -0.468633
     11 C5         -1.8680    1.6710    2.9040 c3        1 MOL      0.012599
     12 C6         -2.8540    1.4750    1.7920 c         1 MOL      0.551202
     13 O3         -4.1010    1.2130    1.9370 o         1 MOL     -0.661379
     14 O4         -2.3900    1.5080    0.5840 o         1 MOL     -0.661379
     15 H4         -0.2480    3.0150    4.3390 hn        1 MOL      0.337329
     16 H5         -0.0870    1.4780    1.7860 h1        1 MOL     -0.035734
     17 H6         -2.3110    2.3090    3.6720 hc        1 MOL      0.016503
     18 H7         -1.6410    0.7560    3.4510 hc        1 MOL      0.016503
     19 N2          0.6050    3.8700    0.9310 n         1 MOL     -0.295043
     20 C7          0.8760    5.1670    0.3160 c3        1 MOL     -0.069918
     21 C8          0.0190    5.5770   -0.8750 c         1 MOL      0.492728
     22 O5          0.1120    6.7340   -1.3130 o         1 MOL     -0.550026
     23 C9          2.3790    5.2180   -0.0550 c3        1 MOL     -0.040980
     24 C10         3.2640    4.8380    1.1660 c3        1 MOL     -0.186756
     25 C11         4.8000    4.9770    0.8200 c3        1 MOL      0.044983
     26 C12         5.5620    4.7020    2.0690 c3        1 MOL     -0.062651
     27 N3          5.2890    5.7000    3.1210 n4        1 MOL     -0.224978
     28 H8          1.2920    3.1560    0.7250 hn        1 MOL      0.205983
     29 H9          0.5950    5.7840    1.1730 h1        1 MOL      0.119747
     30 H10         2.6250    6.2590   -0.2630 hc        1 MOL      0.059938
     31 H11         2.6090    4.5670   -0.8940 hc        1 MOL      0.059938
     32 H12         3.1430    3.7710    1.3760 hc        1 MOL      0.053386
     33 H13         2.9320    5.5220    1.9500 hc        1 MOL      0.053386
     34 H14         5.1200    5.9570    0.4750 hc        1 MOL      0.041823
     35 H15         5.0150    4.2570    0.0360 hc        1 MOL      0.041823
     36 H16         6.6250    4.7600    1.8530 hx        1 MOL      0.115422
     37 H17         5.3050    3.7240    2.4760 hx        1 MOL      0.115422
     38 H18         6.0210    5.6800    3.8170 hn        1 MOL      0.287566
     39 H19         5.3340    6.6290    2.7350 hn        1 MOL      0.287566
     40 H20         4.3590    5.6660    3.5030 hn        1 MOL      0.287566
     41 N4         -1.0440    4.7770   -1.2460 n         1 MOL     -0.222801
     42 C13        -2.1660    5.2860   -2.0990 c3        1 MOL      0.120712
     43 C14        -3.5280    4.9400   -1.4880 c         1 MOL      0.341691
     44 O6         -4.5910    5.2880   -2.0480 o         1 MOL     -0.530044
     45 C15        -1.9070    4.7930   -3.4890 c3        1 MOL     -0.352064
     46 C16        -1.8090    3.2130   -3.5230 c         1 MOL      0.862871
     47 O7         -1.9380    2.5130   -2.4880 o         1 MOL     -0.745226
     48 O8         -1.6020    2.6000   -4.6120 o         1 MOL     -0.745226
     49 H21        -1.0410    3.7700   -1.1400 hn        1 MOL      0.159716
     50 H22        -2.1400    6.3710   -2.2020 h1        1 MOL      0.102500
     51 H23        -0.9000    5.1220   -3.7210 hc        1 MOL      0.098962
     52 H24        -2.7370    4.9620   -4.1690 hc        1 MOL      0.098962
     53 N5         -3.5970    4.3210   -0.2920 n         1 MOL     -0.013792
     54 C17        -4.7800    4.1650    0.5460 c3        1 MOL     -0.174624
     55 C18        -5.8760    3.1560    0.0720 c         1 MOL      0.494348
     56 O9         -7.0290    3.3020    0.4320 o         1 MOL     -0.546892
     57 H25        -2.6990    4.0590    0.0870 hn        1 MOL     -0.034618
     58 H26        -5.2820    5.1270    0.6820 h1        1 MOL      0.103495
     59 H27        -4.4020    3.8500    1.5120 h1        1 MOL      0.103495
     60 N6         -5.4130    2.0200   -0.4940 n         1 MOL     -0.009188
     61 C19        -6.2870    1.0320   -1.0870 c3        1 MOL     -0.317930
     62 C20        -6.6920   -0.1490   -0.1820 c         1 MOL      0.464178
     63 O10        -7.4700   -0.9750   -0.5970 o         1 MOL     -0.457479
     64 C21        -5.6450    0.6200   -2.4490 c3        1 MOL      0.062626
     65 C22        -4.4500   -0.2190   -2.3160 c         1 MOL      0.472253
     66 N7         -4.1240   -0.9390   -3.3910 n         1 MOL     -0.906545
     67 O11        -3.8710   -0.3220   -1.2630 o         1 MOL     -0.212863
     68 H28        -4.4410    1.7680   -0.5630 hn        1 MOL     -0.010947
     69 H29        -7.2510    1.4200   -1.4270 h1        1 MOL      0.152082
     70 H30        -5.2970    1.5060   -2.9850 hc        1 MOL      0.040494
     71 H31        -6.3640    0.1180   -3.1120 hc        1 MOL      0.040494
     72 H32        -4.6630   -0.9220   -4.2430 hn        1 MOL      0.402488
     73 H33        -3.3260   -1.5590   -3.3190 hn        1 MOL      0.402488
     74 N8         -6.3120   -0.0680    1.1070 n         1 MOL     -0.328245
     75 C23        -6.5730   -1.1280    2.1080 c3        1 MOL     -0.194102
     76 C24        -5.4060   -2.1080    2.2100 c         1 MOL      0.576410
     77 O12        -5.5600   -3.1720    2.8500 o         1 MOL     -0.558578
     78 H34        -5.7310    0.6960    1.4160 hn        1 MOL      0.329529
     79 H35        -7.4990   -1.6650    1.9050 h1        1 MOL      0.126439
     80 H36        -6.7390   -0.6710    3.0860 h1        1 MOL      0.126439
     81 N9         -4.3070   -1.8320    1.5230 n         1 MOL     -0.440672
     82 C25        -3.3080   -2.8700    1.4000 c3        1 MOL      0.125883
     83 C26        -1.8170   -2.4310    1.2940 c         1 MOL      0.519082
     84 O13        -1.4940   -1.3940    0.6660 o         1 MOL     -0.578869
     85 C27        -3.6470   -3.7290    0.1150 c3        1 MOL      0.047747
     86 C28        -5.0120   -4.3420   -0.0060 ca        1 MOL      0.155261
     87 C29        -6.0460   -3.7010   -0.8170 ca        1 MOL     -0.330324
     88 C30        -5.2350   -5.6720    0.4920 ca        1 MOL     -0.330324
     89 C31        -7.2560   -4.3480   -0.9990 ca        1 MOL     -0.053583
     90 C32        -6.4720   -6.3190    0.2240 ca        1 MOL     -0.053583
     91 C33        -7.4320   -5.6320   -0.5320 ca        1 MOL      0.158913
     92 O14        -8.6540   -6.1930   -0.5220 oh        1 MOL     -0.455654
     93 H37        -4.1540   -0.8960    1.1580 hn        1 MOL      0.267357
     94 H38        -3.3770   -3.5700    2.2330 h1        1 MOL      0.027559
     95 H39        -2.8850   -4.4920   -0.0370 hc        1 MOL     -0.024914
     96 H40        -3.5740   -3.1160   -0.7830 hc        1 MOL     -0.024914
     97 H41        -5.8730   -2.8170   -1.4150 ha        1 MOL      0.156880
     98 H42        -4.4860   -6.2000    1.0640 ha        1 MOL      0.156880
     99 H43        -8.1080   -3.9330   -1.5220 ha        1 MOL      0.096217
    100 H44        -6.7030   -7.3350    0.5190 ha        1 MOL      0.096217
    101 H45        -8.7260   -6.9970   -0.0160 ho        1 MOL      0.354074
    102 N10        -0.8700   -3.2670    1.7290 n         1 MOL     -0.466760
    103 C34         0.5610   -2.9730    1.7520 c3        1 MOL     -0.261914
    104 C35         1.2590   -3.7300    0.6040 c         1 MOL      0.720632
    105 O15         1.2430   -4.9850    0.6640 o         1 MOL     -0.582590
    106 C36         1.2990   -3.2740    3.0560 c3        1 MOL      0.161631
    107 C37         0.5790   -2.6070    4.2020 c3        1 MOL      0.079155
    108 C38         2.7190   -2.6820    2.8760 c3        1 MOL     -0.027104
    109 C39         1.0970   -2.6660    5.6340 c3        1 MOL     -0.438303
    110 H46        -1.0940   -4.1410    2.1880 hn        1 MOL      0.327705
    111 H47         0.7230   -1.8980    1.6870 h1        1 MOL      0.151134
    112 H48         1.4350   -4.3220    3.2980 hc        1 MOL      0.006517
    113 H49        -0.4480   -2.9820    4.2620 hc        1 MOL      0.021192
    114 H50         0.5130   -1.5300    4.0150 hc        1 MOL      0.021192
    115 H51         3.2680   -2.7310    3.8210 hc        1 MOL     -0.006223
    116 H52         3.3670   -3.3010    2.2420 hc        1 MOL     -0.006223
    117 H53         2.7320   -1.6660    2.4950 hc        1 MOL     -0.006223
    118 H54         1.1530   -3.6700    6.0690 hc        1 MOL      0.115428
    119 H55         2.1320   -2.3100    5.5950 hc        1 MOL      0.115428
    120 H56         0.5040   -1.9130    6.1450 hc        1 MOL      0.115428
    121 N11         1.9930   -3.0660   -0.3390 n         1 MOL     -0.325998
    122 C40         2.9630   -3.7050   -1.2480 c3        1 MOL     -0.034659
    123 C41         4.4610   -3.6240   -0.6900 c         1 MOL      0.314814
    124 O16         4.7670   -2.7860    0.1180 o         1 MOL     -0.271206
    125 C42         2.8980   -2.9690   -2.6360 c3        1 MOL     -0.124105
    126 O17         3.5210   -1.6690   -2.5750 oh        1 MOL     -0.496177
    127 H57         2.0530   -2.0570   -0.3840 hn        1 MOL      0.142355
    128 H58         2.6910   -4.7600   -1.3600 h1        1 MOL      0.076560
    129 H59         1.8680   -2.8110   -2.9610 h1        1 MOL      0.117561
    130 H60         3.4480   -3.5590   -3.3610 h1        1 MOL      0.117561
    131 H61         2.9230   -1.1080   -2.0660 ho        1 MOL      0.413444
    132 N12         5.3150   -4.5230   -1.1620 n         1 MOL     -0.297090
    133 C43         6.7620   -4.4450   -0.9620 c3        1 MOL     -0.059352
    134 C44         7.4440   -3.1780   -1.4790 c         1 MOL      0.502602
    135 O18         8.4090   -2.6590   -0.9180 o         1 MOL     -0.505661
    136 C45         7.5140   -5.6280   -1.6210 c3        1 MOL     -0.244408
    137 H62         4.9570   -5.3000   -1.6890 hn        1 MOL      0.293153
    138 H63         6.9380   -4.5500    0.1130 h1        1 MOL      0.127483
    139 H64         8.5660   -5.3870   -1.5600 hc        1 MOL      0.085698
    140 H65         7.2480   -6.5780   -1.1440 hc        1 MOL      0.085698
    141 H66         7.2900   -5.8310   -2.6730 hc        1 MOL      0.085698
    142 N13         6.8770   -2.5400   -2.5190 n         1 MOL     -0.342728
    143 C46         7.3390   -1.2470   -2.9730 c3        1 MOL      0.038319
    144 C47         6.9850   -0.1320   -1.9260 c         1 MOL      0.370027
    145 O19         7.8340    0.7320   -1.6820 o         1 MOL     -0.522958
    146 C48         6.7960   -1.0100   -4.3630 c3        1 MOL     -0.193895
    147 H67         6.0420   -2.9130   -2.9560 hn        1 MOL      0.244291
    148 H68         8.4260   -1.3010   -3.0610 h1        1 MOL      0.105047
    149 H69         7.0840   -0.0300   -4.7390 hc        1 MOL      0.062697
    150 H70         7.0440   -1.7280   -5.1450 hc        1 MOL      0.062697
    151 H71         5.7330   -0.8190   -4.3150 hc        1 MOL      0.062697
    152 N14         5.8480   -0.1910   -1.2960 n         1 MOL      0.036980
    153 C49         5.4660    0.5980   -0.0970 c3        1 MOL     -0.131974
    154 C50         6.2850    0.2570    1.1410 c         1 MOL      0.551855
    155 O20         6.9200    1.2190    1.6600 o         1 MOL     -0.597363
    156 C51         4.0070    0.4380    0.1050 c3        1 MOL      0.208456
    157 C52         3.2450    1.2810   -0.9050 c3        1 MOL      0.041274
    158 C53         1.7600    0.7740   -1.0400 c         1 MOL      0.616754
    159 O21         0.9040    1.6490   -0.8240 o         1 MOL     -0.642576
    160 O22         1.4010   -0.3550   -1.4220 o         1 MOL     -0.642576
    161 H72         5.1810   -0.9020   -1.5680 hn        1 MOL     -0.018464
    162 H73         5.6290    1.6630   -0.2690 h1        1 MOL      0.050687
    163 H74         3.7870    0.8210    1.1070 hc        1 MOL     -0.071238
    164 H75         3.7410   -0.6190    0.0990 hc        1 MOL     -0.071238
    165 H76         3.7520    1.1920   -1.8630 hc        1 MOL     -0.017666
    166 H77         3.2050    2.2900   -0.5100 hc        1 MOL     -0.017666
    167 N15         6.3970   -1.0020    1.6200 n         1 MOL     -0.183354
    168 C54         7.1880   -1.1990    2.8720 c3        1 MOL     -0.245763
    169 H78         7.4250   -2.2560    2.9880 h1        1 MOL      0.108428
    170 H79         8.1120   -0.6240    2.8120 h1        1 MOL      0.108428
    171 H80         6.6050   -0.8610    3.7280 h1        1 MOL      0.108428
    172 H81         5.9490   -1.7590    1.1300 hn        1 MOL      0.140877
    173 Ca1        -1.2140    0.3120   -1.3360 Ca        1 MOL      1.667732
    174 O23        -1.4020   -2.1500   -2.4460 oh        1 MOL     -0.877196
    175 H82        -1.2990   -3.0370   -2.0910 ho        1 MOL      0.413612
    176 H83        -1.4280   -2.2750   -3.3910 ho        1 MOL      0.413612
    177 O24        -0.1870    0.3670   -3.9500 oh        1 MOL     -0.877196
    178 H84         0.2130   -0.2020   -4.6010 ho        1 MOL      0.413612
    179 H85        -0.7690    0.9330   -4.4540 ho        1 MOL      0.413612
@<TRIPOS>BOND
     1    1    2 1   
     2    1    4 1   
     3    1    5 1   
     4    1    6 1   
     5    2    3 2   
     6    2    7 1   
     7    7    8 1   
     8    7   15 1   
     9    8    9 1   
    10    8   11 1   
    11    8   16 1   
    12    9   10 2   
    13    9   19 1   
    14   11   12 1   
    15   11   17 1   
    16   11   18 1   
    17   12   13 1   
    18   12   14 1   
    19   19   20 1   
    20   19   28 1   
    21   20   21 1   
    22   20   23 1   
    23   20   29 1   
    24   21   22 2   
    25   21   41 1   
    26   23   24 1   
    27   23   30 1   
    28   23   31 1   
    29   24   25 1   
    30   24   32 1   
    31   24   33 1   
    32   25   26 1   
    33   25   34 1   
    34   25   35 1   
    35   26   27 1   
    36   26   36 1   
    37   26   37 1   
    38   27   38 1   
    39   27   39 1   
    40   27   40 1   
    41   41   42 1   
    42   41   49 1   
    43   42   43 1   
    44   42   45 1   
    45   42   50 1   
    46   43   44 2   
    47   43   53 1   
    48   45   46 1   
    49   45   51 1   
    50   45   52 1   
    51   46   47 1   
    52   46   48 1   
    53   53   54 1   
    54   53   57 1   
    55   54   55 1   
    56   54   58 1   
    57   54   59 1   
    58   55   56 2   
    59   55   60 1   
    60   60   61 1   
    61   60   68 1   
    62   61   62 1   
    63   61   64 1   
    64   61   69 1   
    65   62   63 2   
    66   62   74 1   
    67   64   65 1   
    68   64   70 1   
    69   64   71 1   
    70   65   66 1   
    71   65   67 2   
    72   66   72 1   
    73   66   73 1   
    74   74   75 1   
    75   74   78 1   
    76   75   76 1   
    77   75   79 1   
    78   75   80 1   
    79   76   77 2   
    80   76   81 1   
    81   81   82 1   
    82   81   93 1   
    83   82   83 1   
    84   82   85 1   
    85   82   94 1   
    86   83   84 2   
    87   83  102 1   
    88   85   86 1   
    89   85   95 1   
    90   85   96 1   
    91   86   87 ar  
    92   86   88 ar  
    93   87   89 ar  
    94   87   97 1   
    95   88   90 ar  
    96   88   98 1   
    97   89   91 ar  
    98   89   99 1   
    99   90   91 ar  
   100   90  100 1   
   101   91   92 1   
   102   92  101 1   
   103  102  103 1   
   104  102  110 1   
   105  103  104 1   
   106  103  106 1   
   107  103  111 1   
   108  104  105 2   
   109  104  121 1   
   110  106  107 1   
   111  106  108 1   
   112  106  112 1   
   113  107  109 1   
   114  107  113 1   
   115  107  114 1   
   116  108  115 1   
   117  108  116 1   
   118  108  117 1   
   119  109  118 1   
   120  109  119 1   
   121  109  120 1   
   122  121  122 1   
   123  121  127 1   
   124  122  123 1   
   125  122  125 1   
   126  122  128 1   
   127  123  124 2   
   128  123  132 1   
   129  125  126 1   
   130  125  129 1   
   131  125  130 1   
   132  126  131 1   
   133  132  133 1   
   134  132  137 1   
   135  133  134 1   
   136  133  136 1   
   137  133  138 1   
   138  134  135 2   
   139  134  142 1   
   140  136  139 1   
   141  136  140 1   
   142  136  141 1   
   143  142  143 1   
   144  142  147 1   
   145  143  144 1   
   146  143  146 1   
   147  143  148 1   
   148  144  145 2   
   149  144  152 1   
   150  146  149 1   
   151  146  150 1   
   152  146  151 1   
   153  152  153 1   
   154  152  161 1   
   155  153  154 1   
   156  153  156 1   
   157  153  162 1   
   158  154  155 2   
   159  154  167 1   
   160  156  157 1   
   161  156  163 1   
   162  156  164 1   
   163  157  158 1   
   164  157  165 1   
   165  157  166 1   
   166  158  159 1   
   167  158  160 1   
   168  167  168 1   
   169  167  172 1   
   170  168  169 1   
   171  168  170 1   
   172  168  171 1   
   173  174  175 1   
   174  174  176 1   
   175  177  178 1   
   176  177  179 1   
@<TRIPOS>SUBSTRUCTURE
     1 MOL         1 TEMP              0 ****  ****    0 ROOT
