@<TRIPOS>MOLECULE
MOL
  179   176     1     0     0
SMALL
resp


@<TRIPOS>ATOM
      1 C1          1.6180    4.0980    3.9780 c3        1 MOL     -0.334086
      2 C2          0.9070    3.4830    2.7140 c         1 MOL      0.667371
      3 O1          1.4860    3.4320    1.6390 o         1 MOL     -0.552659
      4 H1          2.3410    3.3830    4.3720 hc        1 MOL      0.080985
      5 H2          2.1330    5.0170    3.6950 hc        1 MOL      0.080985
      6 H3          0.8740    4.3190    4.7440 hc        1 MOL      0.080985
      7 N1         -0.3960    3.1690    2.8750 n         1 MOL     -0.666788
      8 C3         -1.3340    2.7300    1.9220 c3        1 MOL      0.055332
      9 C4         -2.2830    3.7580    1.3430 c         1 MOL      0.777556
     10 O2         -3.4050    3.8640    1.7080 o         1 MOL     -0.502459
     11 C5         -2.1300    1.5880    2.6470 c3        1 MOL     -0.362037
     12 C6         -3.1230    0.8440    1.7100 c         1 MOL      0.721991
     13 O3         -4.2460    0.4680    2.1180 o         1 MOL     -0.660153
     14 O4         -2.7460    0.6630    0.5260 o         1 MOL     -0.660153
     15 H4         -0.7940    3.3480    3.7820 hn        1 MOL      0.366891
     16 H5         -0.7320    2.3100    1.1150 h1        1 MOL      0.019497
     17 H6         -2.5550    1.9300    3.5890 hc        1 MOL      0.095239
     18 H7         -1.3790    0.8350    2.8460 hc        1 MOL      0.095239
     19 N2         -1.6390    4.6630    0.5900 n         1 MOL     -0.678847
     20 C7         -2.2680    5.8650    0.0500 c3        1 MOL      0.086741
     21 C8         -3.3510    5.4880   -0.9090 c         1 MOL      0.368062
     22 O5         -4.3910    6.1780   -0.9000 o         1 MOL     -0.522831
     23 C9         -1.2180    6.6640   -0.7430 c3        1 MOL     -0.209484
     24 C10        -0.0350    7.2450    0.1610 c3        1 MOL      0.160256
     25 C11         1.0200    8.0940   -0.5580 c3        1 MOL     -0.014593
     26 C12         1.6610    9.0550    0.4750 c3        1 MOL     -0.113295
     27 N3          2.6140    8.3750    1.4490 n4        1 MOL     -0.300666
     28 H8         -0.7250    4.3960    0.2420 hn        1 MOL      0.403958
     29 H9         -2.7440    6.4330    0.8530 h1        1 MOL      0.112572
     30 H10        -1.7850    7.4630   -1.2150 hc        1 MOL      0.076521
     31 H11        -0.6790    6.0070   -1.4260 hc        1 MOL      0.076521
     32 H12         0.5130    6.4790    0.6980 hc        1 MOL     -0.031437
     33 H13        -0.5910    7.8320    0.8970 hc        1 MOL     -0.031437
     34 H14         0.6060    8.6900   -1.3690 hc        1 MOL      0.052443
     35 H15         1.7510    7.4840   -1.0790 hc        1 MOL      0.052443
     36 H16         0.9020    9.5950    1.0380 hx        1 MOL      0.120213
     37 H17         2.2880    9.7410   -0.0970 hx        1 MOL      0.120213
     38 H18         3.2120    9.0380    1.9080 hn        1 MOL      0.320825
     39 H19         2.1580    7.7680    2.1080 hn        1 MOL      0.320825
     40 H20         3.2160    7.7860    0.8930 hn        1 MOL      0.320825
     41 N4         -3.2160    4.3180   -1.5680 n         1 MOL     -0.193465
     42 C13        -4.1820    3.8900   -2.6140 c3        1 MOL     -0.040379
     43 C14        -5.3760    3.2820   -1.8760 c         1 MOL      0.505857
     44 O6         -6.4620    3.4080   -2.3640 o         1 MOL     -0.557638
     45 C15        -3.5580    2.8730   -3.5900 c3        1 MOL     -0.229591
     46 C16        -2.9270    1.8010   -2.7190 c         1 MOL      0.643760
     47 O7         -1.8050    2.0300   -2.1800 o         1 MOL     -0.712595
     48 O8         -3.4150    0.6710   -2.6510 o         1 MOL     -0.712595
     49 H21        -2.3480    3.8270   -1.4040 hn        1 MOL      0.192078
     50 H22        -4.4270    4.7510   -3.2350 h1        1 MOL      0.101889
     51 H23        -2.8210    3.3580   -4.2180 hc        1 MOL      0.084633
     52 H24        -4.3550    2.4280   -4.1880 hc        1 MOL      0.084633
     53 N5         -5.2460    2.7130   -0.6470 n         1 MOL      0.041105
     54 C17        -6.3860    2.3390    0.2340 c3        1 MOL     -0.339607
     55 C18        -6.8060    0.8960    0.1550 c         1 MOL      0.646487
     56 O9         -7.9450    0.6510    0.4810 o         1 MOL     -0.611434
     57 H25        -4.3190    2.6960   -0.2580 hn        1 MOL      0.019391
     58 H26        -7.2650    2.9210   -0.0530 h1        1 MOL      0.145532
     59 H27        -6.1160    2.4980    1.2780 h1        1 MOL      0.145532
     60 N6         -6.0130   -0.0540   -0.2380 n         1 MOL     -0.119353
     61 C19        -6.4660   -1.3940   -0.5610 c3        1 MOL     -0.164970
     62 C20        -6.3100   -2.3690    0.6180 c         1 MOL      0.446642
     63 O10        -6.8650   -3.4820    0.5840 o         1 MOL     -0.514414
     64 C21        -5.9340   -1.8210   -1.9560 c3        1 MOL     -0.076259
     65 C22        -4.4660   -2.1880   -1.9920 c         1 MOL      0.497277
     66 N7         -4.0100   -2.9330   -2.9680 n         1 MOL     -0.733183
     67 O11        -3.6640   -2.0090   -1.0670 o         1 MOL     -0.293520
     68 H28        -5.0470    0.1810   -0.4010 hn        1 MOL     -0.065740
     69 H29        -7.5390   -1.2760   -0.6800 h1        1 MOL      0.129142
     70 H30        -6.0860   -1.0570   -2.7280 hc        1 MOL      0.071254
     71 H31        -6.5140   -2.6580   -2.3590 hc        1 MOL      0.071254
     72 H32        -4.6130   -3.2590   -3.7170 hn        1 MOL      0.332333
     73 H33        -3.0450   -3.2180   -2.9680 hn        1 MOL      0.332333
     74 N8         -5.6230   -1.8810    1.7290 n         1 MOL     -0.182363
     75 C23        -5.6120   -2.5680    2.9590 c3        1 MOL     -0.138929
     76 C24        -4.3240   -3.3280    3.2790 c         1 MOL      0.554611
     77 O12        -4.2130   -4.1140    4.1850 o         1 MOL     -0.577091
     78 H34        -5.3280   -0.9160    1.7560 hn        1 MOL      0.276023
     79 H35        -6.4660   -3.1850    3.2210 h1        1 MOL      0.078689
     80 H36        -5.5980   -1.6980    3.6250 h1        1 MOL      0.078689
     81 N9         -3.3040   -3.1140    2.4160 n         1 MOL     -0.173922
     82 C25        -1.9520   -3.7930    2.4390 c3        1 MOL     -0.149822
     83 C26        -0.8810   -3.0160    1.5900 c         1 MOL      0.934490
     84 O13        -1.2510   -2.1110    0.8270 o         1 MOL     -0.717789
     85 C27        -2.1310   -5.3370    1.9600 c3        1 MOL     -0.204504
     86 C28        -2.7210   -5.5260    0.6010 ca        1 MOL      0.110870
     87 C29        -1.8650   -5.3760   -0.4780 ca        1 MOL     -0.221385
     88 C30        -4.0440   -5.9140    0.4040 ca        1 MOL     -0.221385
     89 C31        -2.2200   -5.6420   -1.8050 ca        1 MOL     -0.212792
     90 C32        -4.4610   -6.1800   -0.9300 ca        1 MOL     -0.212792
     91 C33        -3.5440   -6.0730   -1.9850 ca        1 MOL      0.301252
     92 O14        -4.0070   -6.1440   -3.2480 oh        1 MOL     -0.543916
     93 H37        -3.4260   -2.4310    1.6860 hn        1 MOL      0.065415
     94 H38        -1.6990   -3.6710    3.4960 h1        1 MOL      0.098676
     95 H39        -2.6980   -5.9770    2.6390 hc        1 MOL      0.097845
     96 H40        -1.1530   -5.8070    2.0500 hc        1 MOL      0.097845
     97 H41        -0.8310   -5.1220   -0.3080 ha        1 MOL      0.180814
     98 H42        -4.7470   -6.0130    1.2110 ha        1 MOL      0.180814
     99 H43        -1.4590   -5.5090   -2.5570 ha        1 MOL      0.129807
    100 H44        -5.4340   -6.5770   -1.1680 ha        1 MOL      0.129807
    101 H45        -4.9670   -6.1560   -3.2020 ho        1 MOL      0.399517
    102 N10         0.3810   -3.3040    1.8960 n         1 MOL     -0.861323
    103 C34         1.5620   -2.6100    1.3560 c3        1 MOL      0.291944
    104 C35         2.6670   -3.4770    0.8360 c         1 MOL      0.413074
    105 O15         2.7290   -4.6790    1.1290 o         1 MOL     -0.538249
    106 C36         2.1060   -1.5520    2.3990 c3        1 MOL      0.112296
    107 C37         2.4580   -2.2790    3.7580 c3        1 MOL     -0.136271
    108 C38         1.1340   -0.3770    2.5420 c3        1 MOL     -0.602698
    109 C39         3.2660   -1.4140    4.6870 c3        1 MOL     -0.100314
    110 H46         0.5510   -4.1350    2.4440 hn        1 MOL      0.366668
    111 H47         1.3310   -1.9020    0.5590 h1        1 MOL     -0.014883
    112 H48         3.0150   -1.0640    2.0550 hc        1 MOL     -0.054238
    113 H49         2.9910   -3.1880    3.4900 hc        1 MOL      0.069993
    114 H50         1.5240   -2.4920    4.2830 hc        1 MOL      0.069993
    115 H51         1.0350    0.1470    1.5860 hc        1 MOL      0.200575
    116 H52         0.1580   -0.6610    2.9170 hc        1 MOL      0.200575
    117 H53         1.5150    0.3370    3.2770 hc        1 MOL      0.200575
    118 H54         4.2630   -1.2550    4.2870 hc        1 MOL      0.028273
    119 H55         2.7480   -0.4660    4.8310 hc        1 MOL      0.028273
    120 H56         3.2970   -1.8900    5.6690 hc        1 MOL      0.028273
    121 N11         3.5470   -2.8940   -0.0170 n         1 MOL     -0.231151
    122 C40         4.7890   -3.4410   -0.5240 c3        1 MOL      0.171936
    123 C41         5.9840   -2.7800    0.2100 c         1 MOL      0.415990
    124 O16         5.8510   -1.7480    0.8530 o         1 MOL     -0.371115
    125 C42         4.9110   -3.2520   -2.0090 c3        1 MOL     -0.431758
    126 O17         5.0880   -1.9100   -2.3240 oh        1 MOL     -0.277640
    127 H57         3.3040   -2.0030   -0.3990 hn        1 MOL      0.134652
    128 H58         4.9290   -4.5070   -0.3410 h1        1 MOL      0.041530
    129 H59         3.9800   -3.6520   -2.4070 h1        1 MOL      0.161648
    130 H60         5.7280   -3.8160   -2.4600 h1        1 MOL      0.161648
    131 H61         4.8570   -1.8720   -3.2540 ho        1 MOL      0.364223
    132 N12         7.1890   -3.2660   -0.0860 n         1 MOL     -0.499164
    133 C43         8.4960   -2.6150    0.2490 c3        1 MOL      0.209285
    134 C44         8.5990   -1.2810   -0.4430 c         1 MOL      0.462209
    135 O18         8.9400   -0.2830    0.1480 o         1 MOL     -0.512758
    136 C45         9.6410   -3.6020   -0.1300 c3        1 MOL     -0.324253
    137 H62         7.2080   -4.1390   -0.6120 hn        1 MOL      0.299499
    138 H63         8.5720   -2.3920    1.3200 h1        1 MOL      0.079290
    139 H64         9.4730   -3.9740   -1.1380 hc        1 MOL      0.096792
    140 H65        10.5710   -3.0320   -0.1370 hc        1 MOL      0.096792
    141 H66         9.6940   -4.4490    0.5420 hc        1 MOL      0.096792
    142 N13         8.2090   -1.1290   -1.7190 n         1 MOL     -0.410454
    143 C46         8.1690    0.0840   -2.4900 c3        1 MOL      0.247234
    144 C47         7.2010    1.1700   -1.8950 c         1 MOL      0.299891
    145 O19         7.5410    2.3670   -1.8510 o         1 MOL     -0.505010
    146 C48         7.8660   -0.1700   -3.9630 c3        1 MOL     -0.275179
    147 H67         8.1150   -1.9710   -2.2770 hn        1 MOL      0.248280
    148 H68         9.0730    0.6840   -2.5580 h1        1 MOL      0.041206
    149 H69         7.7190    0.7540   -4.5160 hc        1 MOL      0.063676
    150 H70         8.6620   -0.8300   -4.2980 hc        1 MOL      0.063676
    151 H71         6.9270   -0.7000   -4.0560 hc        1 MOL      0.063676
    152 N14         6.0590    0.6920   -1.3640 n         1 MOL      0.005974
    153 C49         5.0860    1.5060   -0.6280 c3        1 MOL      0.007991
    154 C50         5.6140    1.9290    0.7590 c         1 MOL      0.428238
    155 O20         5.4100    3.0810    1.1280 o         1 MOL     -0.568357
    156 C51         3.7630    0.6910   -0.3640 c3        1 MOL      0.063172
    157 C52         2.8340    0.8250   -1.5460 c3        1 MOL     -0.190431
    158 C53         1.5390    0.1400   -1.1420 c         1 MOL      0.761371
    159 O21         0.5990    0.8310   -0.7430 o         1 MOL     -0.679715
    160 O22         1.4220   -1.0630   -1.5070 o         1 MOL     -0.679715
    161 H72         5.7960   -0.2650   -1.5070 hn        1 MOL     -0.009925
    162 H73         4.8600    2.4080   -1.2030 h1        1 MOL      0.046079
    163 H74         3.2950    1.1210    0.5200 hc        1 MOL      0.039447
    164 H75         4.0660   -0.3560   -0.3310 hc        1 MOL      0.039447
    165 H76         3.4160    0.4500   -2.3890 hc        1 MOL      0.012083
    166 H77         2.5640    1.8740   -1.6440 hc        1 MOL      0.012083
    167 N15         6.3680    1.0740    1.4810 n         1 MOL     -0.097031
    168 C54         7.1480    1.5600    2.6580 c3        1 MOL     -0.362446
    169 H78         7.8120    0.7680    3.0060 h1        1 MOL      0.131902
    170 H79         7.7400    2.4290    2.3680 h1        1 MOL      0.131902
    171 H80         6.4630    1.8390    3.4590 h1        1 MOL      0.131902
    172 H81         6.3560    0.1030    1.1840 hn        1 MOL      0.141663
    173 Ca1        -1.4550   -0.4550   -1.2590 Ca        1 MOL      1.709346
    174 O23        -1.1430   -2.8560   -2.5400 oh        1 MOL     -0.834865
    175 H82        -0.4070   -3.4010   -2.2830 ho        1 MOL      0.408086
    176 H83        -1.2760   -3.0610   -3.4760 ho        1 MOL      0.408086
    177 O24        -0.3710    0.1190   -3.8800 oh        1 MOL     -0.834865
    178 H84        -0.4060    1.0210   -4.1820 ho        1 MOL      0.408086
    179 H85        -0.4700   -0.4100   -4.6790 ho        1 MOL      0.408086
@<TRIPOS>BOND
     1    1    2 1   
     2    1    4 1   
     3    1    5 1   
     4    1    6 1   
     5    2    3 2   
     6    2    7 1   
     7    7    8 1   
     8    7   15 1   
     9    8    9 1   
    10    8   11 1   
    11    8   16 1   
    12    9   10 2   
    13    9   19 1   
    14   11   12 1   
    15   11   17 1   
    16   11   18 1   
    17   12   13 1   
    18   12   14 1   
    19   19   20 1   
    20   19   28 1   
    21   20   21 1   
    22   20   23 1   
    23   20   29 1   
    24   21   22 2   
    25   21   41 1   
    26   23   24 1   
    27   23   30 1   
    28   23   31 1   
    29   24   25 1   
    30   24   32 1   
    31   24   33 1   
    32   25   26 1   
    33   25   34 1   
    34   25   35 1   
    35   26   27 1   
    36   26   36 1   
    37   26   37 1   
    38   27   38 1   
    39   27   39 1   
    40   27   40 1   
    41   41   42 1   
    42   41   49 1   
    43   42   43 1   
    44   42   45 1   
    45   42   50 1   
    46   43   44 2   
    47   43   53 1   
    48   45   46 1   
    49   45   51 1   
    50   45   52 1   
    51   46   47 1   
    52   46   48 1   
    53   53   54 1   
    54   53   57 1   
    55   54   55 1   
    56   54   58 1   
    57   54   59 1   
    58   55   56 2   
    59   55   60 1   
    60   60   61 1   
    61   60   68 1   
    62   61   62 1   
    63   61   64 1   
    64   61   69 1   
    65   62   63 2   
    66   62   74 1   
    67   64   65 1   
    68   64   70 1   
    69   64   71 1   
    70   65   66 1   
    71   65   67 2   
    72   66   72 1   
    73   66   73 1   
    74   74   75 1   
    75   74   78 1   
    76   75   76 1   
    77   75   79 1   
    78   75   80 1   
    79   76   77 2   
    80   76   81 1   
    81   81   82 1   
    82   81   93 1   
    83   82   83 1   
    84   82   85 1   
    85   82   94 1   
    86   83   84 2   
    87   83  102 1   
    88   85   86 1   
    89   85   95 1   
    90   85   96 1   
    91   86   87 ar  
    92   86   88 ar  
    93   87   89 ar  
    94   87   97 1   
    95   88   90 ar  
    96   88   98 1   
    97   89   91 ar  
    98   89   99 1   
    99   90   91 ar  
   100   90  100 1   
   101   91   92 1   
   102   92  101 1   
   103  102  103 1   
   104  102  110 1   
   105  103  104 1   
   106  103  106 1   
   107  103  111 1   
   108  104  105 2   
   109  104  121 1   
   110  106  107 1   
   111  106  108 1   
   112  106  112 1   
   113  107  109 1   
   114  107  113 1   
   115  107  114 1   
   116  108  115 1   
   117  108  116 1   
   118  108  117 1   
   119  109  118 1   
   120  109  119 1   
   121  109  120 1   
   122  121  122 1   
   123  121  127 1   
   124  122  123 1   
   125  122  125 1   
   126  122  128 1   
   127  123  124 2   
   128  123  132 1   
   129  125  126 1   
   130  125  129 1   
   131  125  130 1   
   132  126  131 1   
   133  132  133 1   
   134  132  137 1   
   135  133  134 1   
   136  133  136 1   
   137  133  138 1   
   138  134  135 2   
   139  134  142 1   
   140  136  139 1   
   141  136  140 1   
   142  136  141 1   
   143  142  143 1   
   144  142  147 1   
   145  143  144 1   
   146  143  146 1   
   147  143  148 1   
   148  144  145 2   
   149  144  152 1   
   150  146  149 1   
   151  146  150 1   
   152  146  151 1   
   153  152  153 1   
   154  152  161 1   
   155  153  154 1   
   156  153  156 1   
   157  153  162 1   
   158  154  155 2   
   159  154  167 1   
   160  156  157 1   
   161  156  163 1   
   162  156  164 1   
   163  157  158 1   
   164  157  165 1   
   165  157  166 1   
   166  158  159 1   
   167  158  160 1   
   168  167  168 1   
   169  167  172 1   
   170  168  169 1   
   171  168  170 1   
   172  168  171 1   
   173  174  175 1   
   174  174  176 1   
   175  177  178 1   
   176  177  179 1   
@<TRIPOS>SUBSTRUCTURE
     1 MOL         1 TEMP              0 ****  ****    0 ROOT
