@<TRIPOS>MOLECULE
MOL
  179   176     1     0     0
SMALL
resp


@<TRIPOS>ATOM
      1 C1         -2.7690   -2.5720    4.6650 c3        1 MOL     -0.339584
      2 C2         -1.8460   -2.3550    3.3970 c         1 MOL      0.743475
      3 O1         -2.3960   -2.0040    2.3610 o         1 MOL     -0.611056
      4 H1         -3.7420   -2.1140    4.4890 hc        1 MOL      0.082529
      5 H2         -2.8980   -3.6390    4.8430 hc        1 MOL      0.082529
      6 H3         -2.3040   -2.1110    5.5370 hc        1 MOL      0.082529
      7 N1         -0.5520   -2.4380    3.5180 n         1 MOL     -0.665663
      8 C3          0.3270   -2.2880    2.3720 c3        1 MOL      0.325498
      9 C4          0.4220   -3.6410    1.5140 c         1 MOL      0.236572
     10 O2          1.1610   -4.6120    1.8290 o         1 MOL     -0.482553
     11 C5          1.6160   -1.7210    2.8630 c3        1 MOL     -0.015464
     12 C6          2.7350   -1.5470    1.8320 c         1 MOL      0.716914
     13 O3          3.8480   -1.2070    2.2400 o         1 MOL     -0.730953
     14 O4          2.4580   -1.5920    0.5790 o         1 MOL     -0.730953
     15 H4         -0.1550   -2.5640    4.4430 hn        1 MOL      0.330312
     16 H5         -0.0730   -1.5070    1.7240 h1        1 MOL     -0.035615
     17 H6          1.9910   -2.5290    3.4890 hc        1 MOL     -0.004650
     18 H7          1.4500   -0.8450    3.4980 hc        1 MOL     -0.004650
     19 N2         -0.4950   -3.7620    0.5170 n         1 MOL     -0.031263
     20 C7         -0.8090   -4.9930   -0.1940 c3        1 MOL      0.037868
     21 C8          0.3350   -5.5030   -0.9870 c         1 MOL      0.390915
     22 O5          0.2720   -6.6830   -1.4060 o         1 MOL     -0.560320
     23 C9         -2.1660   -4.8050   -0.8810 c3        1 MOL     -0.154875
     24 C10        -3.3580   -4.4970   -0.0290 c3        1 MOL      0.032406
     25 C11        -3.4580   -5.3190    1.2460 c3        1 MOL     -0.104153
     26 C12        -4.8550   -5.2950    1.7960 c3        1 MOL      0.076124
     27 N3         -5.0770   -6.3510    2.8350 n4        1 MOL     -0.272458
     28 H8         -1.0030   -2.9050    0.3750 hn        1 MOL      0.190558
     29 H9         -0.9720   -5.8560    0.4600 h1        1 MOL      0.045461
     30 H10        -2.4190   -5.7410   -1.3650 hc        1 MOL      0.060761
     31 H11        -2.1620   -4.0420   -1.6610 hc        1 MOL      0.060761
     32 H12        -4.2560   -4.6810   -0.6150 hc        1 MOL      0.056871
     33 H13        -3.3710   -3.4180    0.1430 hc        1 MOL      0.056871
     34 H14        -2.7220   -4.9670    1.9590 hc        1 MOL      0.037735
     35 H15        -3.1610   -6.3490    1.0500 hc        1 MOL      0.037735
     36 H16        -5.5670   -5.3920    0.9830 hx        1 MOL      0.072402
     37 H17        -4.9770   -4.2870    2.1840 hx        1 MOL      0.072402
     38 H18        -6.0710   -6.3760    3.0410 hn        1 MOL      0.298248
     39 H19        -4.8920   -7.2950    2.5330 hn        1 MOL      0.298248
     40 H20        -4.7320   -6.2330    3.7760 hn        1 MOL      0.298248
     41 N4          1.3520   -4.7280   -1.3610 n         1 MOL     -0.102631
     42 C13         2.5370   -5.2110   -2.0670 c3        1 MOL      0.034868
     43 C14         3.8650   -5.1620   -1.2280 c         1 MOL      0.359576
     44 O6          4.8880   -5.6920   -1.6450 o         1 MOL     -0.544723
     45 C15         2.6420   -4.5030   -3.3840 c3        1 MOL     -0.038144
     46 C16         2.7070   -3.0080   -3.3540 c         1 MOL      0.685014
     47 O7          2.9850   -2.3570   -4.3640 o         1 MOL     -0.698580
     48 O8          2.4260   -2.4150   -2.2980 o         1 MOL     -0.698580
     49 H21         1.2900   -3.7560   -1.0800 hn        1 MOL     -0.001526
     50 H22         2.3810   -6.2810   -2.2660 h1        1 MOL      0.091274
     51 H23         1.7760   -4.8640   -3.9360 hc        1 MOL      0.024905
     52 H24         3.4730   -4.9250   -3.9430 hc        1 MOL      0.024905
     53 N5          3.8460   -4.5610   -0.0880 n         1 MOL      0.057710
     54 C17         4.9350   -4.3750    0.7960 c3        1 MOL     -0.240740
     55 C18         5.9150   -3.2310    0.3470 c         1 MOL      0.535374
     56 O9          7.1230   -3.2590    0.6500 o         1 MOL     -0.560984
     57 H25         2.9110   -4.2970    0.1890 hn        1 MOL      0.015494
     58 H26         5.4070   -5.3520    0.8510 h1        1 MOL      0.116749
     59 H27         4.6000   -4.1510    1.8090 h1        1 MOL      0.116749
     60 N6          5.4100   -2.1800   -0.3690 n         1 MOL     -0.173361
     61 C19         6.3040   -1.2370   -1.0670 c3        1 MOL     -0.084282
     62 C20         6.7000    0.0020   -0.1230 c         1 MOL      0.327054
     63 O10         7.5940    0.8370   -0.3600 o         1 MOL     -0.499659
     64 C21         5.6200   -0.8760   -2.3840 c3        1 MOL     -0.304035
     65 C22         4.7360    0.4000   -2.4020 c         1 MOL      0.528497
     66 N7          5.0090    1.4080   -3.2140 n         1 MOL     -0.577681
     67 O11         3.7720    0.5710   -1.6380 o         1 MOL     -0.616263
     68 H28         4.4850   -2.1760   -0.7560 hn        1 MOL      0.159171
     69 H29         7.2320   -1.7790   -1.2490 h1        1 MOL      0.140450
     70 H30         5.1720   -1.7830   -2.7920 hc        1 MOL      0.141693
     71 H31         6.4690   -0.6540   -3.0250 hc        1 MOL      0.141693
     72 H32         5.5970    1.2110   -4.0180 hn        1 MOL      0.311265
     73 H33         4.3750    2.1890   -3.2970 hn        1 MOL      0.311265
     74 N8          6.0860    0.0600    1.0430 n         1 MOL     -0.057732
     75 C23         6.3190    1.1090    2.0800 c3        1 MOL     -0.386119
     76 C24         5.2790    2.2520    2.1010 c         1 MOL      0.632039
     77 O12         5.3480    3.1490    2.9720 o         1 MOL     -0.575893
     78 H34         5.5080   -0.6940    1.3760 hn        1 MOL      0.248718
     79 H35         7.3260    1.5140    2.0060 h1        1 MOL      0.157802
     80 H36         6.3070    0.5370    3.0030 h1        1 MOL      0.157802
     81 N9          4.2780    2.2040    1.2210 n         1 MOL     -0.275389
     82 C25         3.1140    3.0320    1.1960 c3        1 MOL     -0.017521
     83 C26         1.6960    2.3630    1.2490 c         1 MOL      0.513009
     84 O13         1.3850    1.3950    0.5360 o         1 MOL     -0.653095
     85 C27         3.2170    4.0010    0.0260 c3        1 MOL     -0.008392
     86 C28         4.4360    4.8930    0.0580 ca        1 MOL      0.030135
     87 C29         5.6510    4.5010   -0.5600 ca        1 MOL     -0.219658
     88 C30         4.3120    6.1730    0.5920 ca        1 MOL     -0.219658
     89 C31         6.7050    5.3580   -0.6020 ca        1 MOL     -0.090712
     90 C32         5.3320    7.0710    0.4380 ca        1 MOL     -0.090712
     91 C33         6.5960    6.7230   -0.1510 ca        1 MOL      0.139307
     92 O14         7.7530    7.4810   -0.1720 oh        1 MOL     -0.408810
     93 H37         4.3650    1.4130    0.5960 hn        1 MOL      0.298397
     94 H38         3.2160    3.6980    2.0560 h1        1 MOL      0.071284
     95 H39         2.2720    4.5440   -0.0280 hc        1 MOL      0.036163
     96 H40         3.3100    3.3980   -0.8870 hc        1 MOL      0.036163
     97 H41         5.6440    3.4960   -0.9440 ha        1 MOL      0.133326
     98 H42         3.3910    6.3860    1.1150 ha        1 MOL      0.133326
     99 H43         7.6180    5.0670   -1.0990 ha        1 MOL      0.101169
    100 H44         5.2440    8.0910    0.7850 ha        1 MOL      0.101169
    101 H45         7.5940    8.3340    0.2450 ho        1 MOL      0.343265
    102 N10         0.7830    3.0220    1.9930 n         1 MOL     -0.447242
    103 C34        -0.6260    2.7400    2.0650 c3        1 MOL     -0.060304
    104 C35        -1.3100    3.6500    0.9620 c         1 MOL      0.745570
    105 O15        -0.8350    4.7460    0.5920 o         1 MOL     -0.581585
    106 C36        -1.2400    2.8590    3.4470 c3        1 MOL     -0.001898
    107 C37        -0.6640    1.7120    4.3160 c3        1 MOL      0.127900
    108 C38        -2.7860    2.7790    3.4180 c3        1 MOL     -0.200541
    109 C39        -1.1770    1.7870    5.7660 c3        1 MOL     -0.202072
    110 H46         1.1020    3.7980    2.5630 hn        1 MOL      0.292017
    111 H47        -0.7830    1.7050    1.7790 h1        1 MOL      0.130362
    112 H48        -0.9970    3.8520    3.8130 hc        1 MOL      0.039521
    113 H49         0.4200    1.6660    4.4340 hc        1 MOL      0.013217
    114 H50        -0.9800    0.7700    3.8850 hc        1 MOL      0.013217
    115 H51        -3.2000    3.5860    2.8240 hc        1 MOL      0.054653
    116 H52        -2.9940    1.8160    2.9460 hc        1 MOL      0.054653
    117 H53        -3.2460    2.7700    4.4080 hc        1 MOL      0.054653
    118 H54        -2.2480    1.6720    5.9360 hc        1 MOL      0.045977
    119 H55        -0.6740    1.0580    6.4100 hc        1 MOL      0.045977
    120 H56        -0.8350    2.7610    6.1260 hc        1 MOL      0.045977
    121 N11        -2.3860    3.1530    0.3890 n         1 MOL     -0.505760
    122 C40        -3.1180    3.9470   -0.5680 c3        1 MOL      0.013744
    123 C41        -4.6090    3.5960   -0.5260 c         1 MOL      0.484006
    124 O16        -5.1000    2.7260    0.2470 o         1 MOL     -0.441998
    125 C42        -2.4770    3.6790   -1.9740 c3        1 MOL     -0.190480
    126 O17        -2.7100    2.3680   -2.3550 oh        1 MOL     -0.552954
    127 H57        -2.7410    2.2660    0.7050 hn        1 MOL      0.269963
    128 H58        -3.0860    5.0340   -0.4860 h1        1 MOL      0.070431
    129 H59        -1.3850    3.7810   -1.9010 h1        1 MOL      0.129498
    130 H60        -2.9970    4.3150   -2.6920 h1        1 MOL      0.129498
    131 H61        -1.9080    1.8420   -2.2840 ho        1 MOL      0.479576
    132 N12        -5.3710    4.3330   -1.3180 n         1 MOL     -0.322436
    133 C43        -6.7820    4.3920   -1.1190 c3        1 MOL      0.038952
    134 C44        -7.5050    3.0940   -1.3870 c         1 MOL      0.452529
    135 O18        -8.3990    2.7360   -0.5910 o         1 MOL     -0.514697
    136 C45        -7.3030    5.4670   -2.0290 c3        1 MOL     -0.277658
    137 H62        -4.9480    4.9440   -1.9940 hn        1 MOL      0.275458
    138 H63        -6.9370    4.6260   -0.0730 h1        1 MOL      0.112107
    139 H64        -8.3750    5.5590   -2.1920 hc        1 MOL      0.088309
    140 H65        -6.9130    6.4210   -1.6860 hc        1 MOL      0.088309
    141 H66        -6.9830    5.2760   -3.0520 hc        1 MOL      0.088309
    142 N13        -7.2350    2.2690   -2.4580 n         1 MOL     -0.321029
    143 C46        -7.9540    1.0480   -2.7880 c3        1 MOL      0.069679
    144 C47        -7.4550   -0.0690   -1.7980 c         1 MOL      0.346958
    145 O19        -8.1910   -0.8790   -1.3240 o         1 MOL     -0.495699
    146 C48        -7.7050    0.6650   -4.2300 c3        1 MOL     -0.171486
    147 H67        -6.5290    2.6290   -3.0840 hn        1 MOL      0.232047
    148 H68        -8.9750    1.3060   -2.5310 h1        1 MOL      0.097377
    149 H69        -6.6860    0.2970   -4.2740 hc        1 MOL      0.055850
    150 H70        -8.4880    0.0030   -4.6070 hc        1 MOL      0.055850
    151 H71        -7.8150    1.5370   -4.8760 hc        1 MOL      0.055850
    152 N14        -6.2040   -0.0300   -1.4330 n         1 MOL     -0.097721
    153 C49        -5.5920   -0.8150   -0.3220 c3        1 MOL      0.022562
    154 C50        -6.1270   -0.6080    1.0680 c         1 MOL      0.402199
    155 O20        -6.4420   -1.6250    1.7570 o         1 MOL     -0.582678
    156 C51        -4.1040   -0.4220   -0.3310 c3        1 MOL     -0.681953
    157 C52        -3.2820   -0.9380   -1.5870 c3        1 MOL      0.097087
    158 C53        -1.7690   -0.6270   -1.5320 c         1 MOL      0.863034
    159 O21        -1.0160   -1.1350   -0.6700 o         1 MOL     -0.828479
    160 O22        -1.2110    0.0300   -2.4360 o         1 MOL     -0.828479
    161 H72        -5.6330    0.7130   -1.8010 hn        1 MOL      0.216117
    162 H73        -5.6620   -1.8740   -0.5780 h1        1 MOL      0.097392
    163 H74        -3.5470   -0.7720    0.5420 hc        1 MOL      0.205667
    164 H75        -3.9430    0.6510   -0.2670 hc        1 MOL      0.205667
    165 H76        -3.6500   -0.3670   -2.4390 hc        1 MOL     -0.034563
    166 H77        -3.3800   -2.0160   -1.7170 hc        1 MOL     -0.034563
    167 N15        -6.4390    0.6150    1.4150 n         1 MOL      0.021123
    168 C54        -7.2490    0.9640    2.6050 c3        1 MOL     -0.269931
    169 H78        -8.1100    0.2980    2.6660 h1        1 MOL      0.110809
    170 H79        -6.6420    0.8540    3.5040 h1        1 MOL      0.110809
    171 H80        -7.5930    1.9950    2.5220 h1        1 MOL      0.110809
    172 H81        -6.1560    1.3680    0.8180 hn        1 MOL      0.074798
    173 Ca1         1.2640   -0.2980   -1.3680 Ca        1 MOL      1.793840
    174 O23         1.1180    2.3930   -2.1690 oh        1 MOL     -0.815867
    175 H82         1.9190    2.9240   -2.1090 ho        1 MOL      0.389093
    176 H83         0.7090    2.6690   -2.9910 ho        1 MOL      0.389093
    177 O24         1.8560   -0.0540   -3.8760 oh        1 MOL     -0.815867
    178 H84         2.2620   -0.9090   -4.0550 ho        1 MOL      0.389093
    179 H85         2.1660    0.5160   -4.5790 ho        1 MOL      0.389093
@<TRIPOS>BOND
     1    1    2 1   
     2    1    4 1   
     3    1    5 1   
     4    1    6 1   
     5    2    3 2   
     6    2    7 1   
     7    7    8 1   
     8    7   15 1   
     9    8    9 1   
    10    8   11 1   
    11    8   16 1   
    12    9   10 2   
    13    9   19 1   
    14   11   12 1   
    15   11   17 1   
    16   11   18 1   
    17   12   13 1   
    18   12   14 1   
    19   19   20 1   
    20   19   28 1   
    21   20   21 1   
    22   20   23 1   
    23   20   29 1   
    24   21   22 2   
    25   21   41 1   
    26   23   24 1   
    27   23   30 1   
    28   23   31 1   
    29   24   25 1   
    30   24   32 1   
    31   24   33 1   
    32   25   26 1   
    33   25   34 1   
    34   25   35 1   
    35   26   27 1   
    36   26   36 1   
    37   26   37 1   
    38   27   38 1   
    39   27   39 1   
    40   27   40 1   
    41   41   42 1   
    42   41   49 1   
    43   42   43 1   
    44   42   45 1   
    45   42   50 1   
    46   43   44 2   
    47   43   53 1   
    48   45   46 1   
    49   45   51 1   
    50   45   52 1   
    51   46   47 1   
    52   46   48 1   
    53   53   54 1   
    54   53   57 1   
    55   54   55 1   
    56   54   58 1   
    57   54   59 1   
    58   55   56 2   
    59   55   60 1   
    60   60   61 1   
    61   60   68 1   
    62   61   62 1   
    63   61   64 1   
    64   61   69 1   
    65   62   63 2   
    66   62   74 1   
    67   64   65 1   
    68   64   70 1   
    69   64   71 1   
    70   65   66 1   
    71   65   67 2   
    72   66   72 1   
    73   66   73 1   
    74   74   75 1   
    75   74   78 1   
    76   75   76 1   
    77   75   79 1   
    78   75   80 1   
    79   76   77 2   
    80   76   81 1   
    81   81   82 1   
    82   81   93 1   
    83   82   83 1   
    84   82   85 1   
    85   82   94 1   
    86   83   84 2   
    87   83  102 1   
    88   85   86 1   
    89   85   95 1   
    90   85   96 1   
    91   86   87 ar  
    92   86   88 ar  
    93   87   89 ar  
    94   87   97 1   
    95   88   90 ar  
    96   88   98 1   
    97   89   91 ar  
    98   89   99 1   
    99   90   91 ar  
   100   90  100 1   
   101   91   92 1   
   102   92  101 1   
   103  102  103 1   
   104  102  110 1   
   105  103  104 1   
   106  103  106 1   
   107  103  111 1   
   108  104  105 2   
   109  104  121 1   
   110  106  107 1   
   111  106  108 1   
   112  106  112 1   
   113  107  109 1   
   114  107  113 1   
   115  107  114 1   
   116  108  115 1   
   117  108  116 1   
   118  108  117 1   
   119  109  118 1   
   120  109  119 1   
   121  109  120 1   
   122  121  122 1   
   123  121  127 1   
   124  122  123 1   
   125  122  125 1   
   126  122  128 1   
   127  123  124 2   
   128  123  132 1   
   129  125  126 1   
   130  125  129 1   
   131  125  130 1   
   132  126  131 1   
   133  132  133 1   
   134  132  137 1   
   135  133  134 1   
   136  133  136 1   
   137  133  138 1   
   138  134  135 2   
   139  134  142 1   
   140  136  139 1   
   141  136  140 1   
   142  136  141 1   
   143  142  143 1   
   144  142  147 1   
   145  143  144 1   
   146  143  146 1   
   147  143  148 1   
   148  144  145 2   
   149  144  152 1   
   150  146  149 1   
   151  146  150 1   
   152  146  151 1   
   153  152  153 1   
   154  152  161 1   
   155  153  154 1   
   156  153  156 1   
   157  153  162 1   
   158  154  155 2   
   159  154  167 1   
   160  156  157 1   
   161  156  163 1   
   162  156  164 1   
   163  157  158 1   
   164  157  165 1   
   165  157  166 1   
   166  158  159 1   
   167  158  160 1   
   168  167  168 1   
   169  167  172 1   
   170  168  169 1   
   171  168  170 1   
   172  168  171 1   
   173  174  175 1   
   174  174  176 1   
   175  177  178 1   
   176  177  179 1   
@<TRIPOS>SUBSTRUCTURE
     1 MOL         1 TEMP              0 ****  ****    0 ROOT
