@<TRIPOS>MOLECULE
MOL
  172   171     1     0     0
SMALL
resp


@<TRIPOS>ATOM
      1 C1         -0.0790    2.9840    5.5410 c3        1 MOL     -0.419496
      2 C2         -0.6310    2.8090    4.0980 c         1 MOL      0.641028
      3 O1          0.0930    3.1620    3.1440 o         1 MOL     -0.567659
      4 H1         -0.4880    3.8950    5.9780 hc        1 MOL      0.107921
      5 H2         -0.3720    2.1270    6.1490 hc        1 MOL      0.107921
      6 H3          1.0080    3.0530    5.5100 hc        1 MOL      0.107921
      7 N1         -1.8050    2.2520    3.9430 n         1 MOL     -0.501564
      8 C3         -2.4480    1.8980    2.6450 c3        1 MOL      0.172799
      9 C4         -3.0640    3.1410    1.9340 c         1 MOL      0.413538
     10 O2         -4.2920    3.3920    1.9100 o         1 MOL     -0.497023
     11 C5         -3.3680    0.7120    2.9640 c3        1 MOL     -0.172812
     12 C6         -4.0610    0.2400    1.6670 c         1 MOL      0.745629
     13 O3         -3.2980   -0.1870    0.7790 o         1 MOL     -0.693744
     14 O4         -5.2970    0.2400    1.7180 o         1 MOL     -0.693744
     15 H4         -2.2160    1.8410    4.7680 hn        1 MOL      0.283944
     16 H5         -1.6620    1.6270    1.9330 h1        1 MOL      0.006536
     17 H6         -4.1710    1.0940    3.5980 hc        1 MOL      0.028312
     18 H7         -2.9000   -0.1240    3.4850 hc        1 MOL      0.028312
     19 N2         -2.2330    4.0600    1.4570 n         1 MOL     -0.315544
     20 C7         -2.6010    5.4060    1.0540 c3        1 MOL     -0.042043
     21 C8         -3.4990    5.4040   -0.2370 c         1 MOL      0.492099
     22 O5         -4.0910    6.3850   -0.6220 o         1 MOL     -0.563984
     23 C9         -1.2970    6.1970    0.8390 c3        1 MOL     -0.263169
     24 H8         -1.2570    3.8190    1.5570 hn        1 MOL      0.316999
     25 H9         -3.1710    5.7920    1.8950 h1        1 MOL      0.094722
     26 H10        -0.5870    6.1810    1.6750 hc        1 MOL      0.082508
     27 H11        -0.6440    5.6790    0.1390 hc        1 MOL      0.082508
     28 H12        -1.4950    7.2180    0.5130 hc        1 MOL      0.082508
     29 N3         -3.5240    4.3070   -0.9920 n         1 MOL     -0.259095
     30 C10        -4.3890    4.0990   -2.0980 c3        1 MOL     -0.043702
     31 C11        -5.7510    3.4390   -1.7760 c         1 MOL      0.425834
     32 O6         -6.6030    3.3980   -2.6540 o         1 MOL     -0.571353
     33 C12        -3.7230    3.3490   -3.2890 c3        1 MOL     -0.088792
     34 C13        -3.1910    1.9420   -2.9310 c         1 MOL      0.707427
     35 O7         -2.3320    1.4070   -3.6370 o         1 MOL     -0.734603
     36 O8         -3.4900    1.3870   -1.8130 o         1 MOL     -0.734603
     37 H13        -2.8800    3.5850   -0.6950 hn        1 MOL      0.251948
     38 H14        -4.6390    5.0710   -2.5260 h1        1 MOL      0.096950
     39 H15        -2.9270    3.9730   -3.6960 hc        1 MOL      0.033084
     40 H16        -4.3290    3.3530   -4.1890 hc        1 MOL      0.033084
     41 N4         -5.8970    2.8860   -0.5560 n         1 MOL     -0.108712
     42 C14        -7.0750    2.2890    0.0940 c3        1 MOL     -0.181641
     43 C15        -7.4970    0.9190   -0.4380 c         1 MOL      0.607355
     44 O9         -8.6810    0.5580   -0.1540 o         1 MOL     -0.612135
     45 H17        -5.0970    2.9230    0.0490 hn        1 MOL      0.096858
     46 H18        -7.9520    2.9300   -0.0130 h1        1 MOL      0.096452
     47 H19        -6.7860    2.2550    1.1470 h1        1 MOL      0.096452
     48 N5         -6.5920    0.1460   -1.0900 n         1 MOL     -0.411065
     49 C16        -6.8710   -1.2040   -1.6320 c3        1 MOL     -0.047538
     50 C17        -6.8450   -2.3800   -0.5920 c         1 MOL      0.414083
     51 O10        -7.1050   -3.5060   -0.9900 o         1 MOL     -0.550687
     52 C18        -6.0990   -1.5430   -2.8740 c3        1 MOL      0.008061
     53 C19        -4.6720   -1.8530   -2.5860 c         1 MOL      0.518377
     54 N6         -3.9620   -2.3590   -3.5070 n         1 MOL     -0.715584
     55 O11        -4.0970   -1.7360   -1.5120 o         1 MOL     -0.476553
     56 H20        -5.6370    0.4550   -1.0690 hn        1 MOL      0.263731
     57 H21        -7.9060   -1.1570   -1.9830 h1        1 MOL      0.109065
     58 H22        -6.2260   -0.8110   -3.6650 hc        1 MOL      0.028226
     59 H23        -6.5360   -2.4530   -3.3040 hc        1 MOL      0.028226
     60 H24        -4.4250   -2.5440   -4.3840 hn        1 MOL      0.330599
     61 H25        -3.1270   -2.8680   -3.2600 hn        1 MOL      0.330599
     62 N7         -6.5100   -2.1540    0.7030 n         1 MOL     -0.154931
     63 C20        -6.3270   -3.0550    1.8360 c3        1 MOL     -0.441686
     64 C21        -4.9870   -3.7820    1.8870 c         1 MOL      0.713757
     65 O12        -4.8910   -4.7050    2.7520 o         1 MOL     -0.640336
     66 H26        -6.1990   -1.2000    0.8230 hn        1 MOL      0.263568
     67 H27        -7.1660   -3.7530    1.8180 h1        1 MOL      0.172086
     68 H28        -6.2980   -2.4210    2.7260 h1        1 MOL      0.172086
     69 N8         -4.0640   -3.5400    1.0170 n         1 MOL     -0.462421
     70 C22        -2.7900   -4.3110    0.8540 c3        1 MOL     -0.057275
     71 C23        -1.5560   -3.4670    0.6220 c         1 MOL      0.617711
     72 O13        -1.6050   -2.5380   -0.1560 o         1 MOL     -0.548226
     73 C24        -3.0490   -5.1350   -0.4580 c3        1 MOL      0.568698
     74 C25        -1.8480   -5.9850   -0.8730 c3        1 MOL     -0.622445
     75 O14        -4.1180   -6.0400   -0.4140 oh        1 MOL     -0.604779
     76 H29        -4.4310   -2.9970    0.2480 hn        1 MOL      0.280243
     77 H30        -2.6840   -5.1100    1.5870 h1        1 MOL      0.098966
     78 H31        -3.2150   -4.3760   -1.2150 h1        1 MOL     -0.036103
     79 H32        -4.0890   -6.4020   -1.3060 ho        1 MOL      0.355358
     80 H33        -2.0930   -6.5250   -1.7810 hc        1 MOL      0.146329
     81 H34        -0.9790   -5.3850   -1.1630 hc        1 MOL      0.146329
     82 H35        -1.6390   -6.6240   -0.0170 hc        1 MOL      0.146329
     83 N9         -0.4580   -3.8490    1.3050 n         1 MOL     -0.641073
     84 C26         0.7140   -3.0080    1.3880 c3        1 MOL      0.127571
     85 C27         1.6920   -3.1480    0.3000 c         1 MOL      0.458538
     86 O15         2.0700   -4.2770   -0.0940 o         1 MOL     -0.575063
     87 C28         1.4690   -3.2430    2.7430 c3        1 MOL      0.222274
     88 C29         0.4330   -3.5610    3.8880 c3        1 MOL      0.109485
     89 C30         2.2280   -1.9990    3.0980 c3        1 MOL     -0.528409
     90 C31         1.0610   -3.8130    5.2880 c3        1 MOL     -0.281531
     91 H36        -0.4850   -4.7440    1.7730 hn        1 MOL      0.310299
     92 H37         0.2980   -1.9990    1.4250 h1        1 MOL      0.048861
     93 H38         2.0570   -4.1520    2.6400 hc        1 MOL     -0.038775
     94 H39        -0.3040   -4.3590    3.7740 hc        1 MOL      0.011222
     95 H40        -0.1600   -2.6580    4.0430 hc        1 MOL      0.011222
     96 H41         2.8450   -1.6400    2.2720 hc        1 MOL      0.114509
     97 H42         1.6040   -1.1530    3.3890 hc        1 MOL      0.114509
     98 H43         2.8370   -2.2940    3.9480 hc        1 MOL      0.114509
     99 H44         1.4500   -2.9020    5.7520 hc        1 MOL      0.057603
    100 H45         0.3250   -4.2950    5.9370 hc        1 MOL      0.057603
    101 H46         1.9140   -4.4830    5.2180 hc        1 MOL      0.057603
    102 N10         1.8790   -2.0370   -0.4350 n         1 MOL     -0.143307
    103 C32         3.0250   -1.8160   -1.3270 c3        1 MOL      0.023389
    104 C33         4.3360   -1.6360   -0.6080 c         1 MOL      0.476837
    105 O16         4.3640   -1.2560    0.5690 o         1 MOL     -0.379654
    106 C34         2.7780   -0.6190   -2.4020 c3        1 MOL     -0.208847
    107 C35         1.4700   -0.6960   -3.1160 c         1 MOL      0.743008
    108 O17         0.5380    0.0350   -2.6990 o         1 MOL     -0.688361
    109 O18         1.3240   -1.5450   -4.0300 o         1 MOL     -0.688361
    110 H47         1.2870   -1.2460   -0.2360 hn        1 MOL      0.138576
    111 H48         3.1430   -2.6860   -1.9830 h1        1 MOL      0.050362
    112 H49         3.6060   -0.5690   -3.1120 hc        1 MOL      0.044309
    113 H50         2.8340    0.2760   -1.7750 hc        1 MOL      0.044309
    114 N11         5.4570   -1.6760   -1.2960 n         1 MOL     -0.628556
    115 C36         6.7360   -1.3050   -0.7930 c3        1 MOL      0.321945
    116 C37         6.9580    0.2000   -0.6350 c         1 MOL      0.385166
    117 O19         7.4060    0.5600    0.4730 o         1 MOL     -0.488792
    118 C38         7.8970   -1.8560   -1.7310 c3        1 MOL     -0.147360
    119 C39         9.2850   -1.4380   -1.3890 ca        1 MOL      0.113396
    120 C40         9.9830   -0.5110   -2.2120 ca        1 MOL     -0.176425
    121 C41         9.8240   -1.8980   -0.2020 ca        1 MOL     -0.176425
    122 C42        11.2540   -0.1140   -1.8270 ca        1 MOL     -0.121352
    123 C43        11.0460   -1.4040    0.2150 ca        1 MOL     -0.121352
    124 C44        11.7590   -0.5630   -0.6070 ca        1 MOL     -0.083941
    125 H51         5.4030   -2.0030   -2.2540 hn        1 MOL      0.334951
    126 H52         7.0080   -1.8390    0.1110 h1        1 MOL      0.059497
    127 H53         7.6790   -1.4440   -2.7180 hc        1 MOL      0.040406
    128 H54         7.9090   -2.9390   -1.8900 hc        1 MOL      0.040406
    129 H55         9.5170   -0.1440   -3.1200 ha        1 MOL      0.120936
    130 H56         9.2880   -2.5290    0.4790 ha        1 MOL      0.120936
    131 H57        11.7300    0.7060   -2.3280 ha        1 MOL      0.117394
    132 H58        11.4640   -1.6520    1.1770 ha        1 MOL      0.117394
    133 H59        12.7240   -0.2520   -0.2240 ha        1 MOL      0.084477
    134 N12         6.5730    1.1070   -1.5570 n         1 MOL     -0.213390
    135 C45         6.5340    2.5930   -1.2530 c3        1 MOL      0.172433
    136 C46         5.6510    2.9170   -0.0040 c         1 MOL      0.216167
    137 O20         5.9150    3.8980    0.7650 o         1 MOL     -0.478938
    138 C47         5.9640    3.2430   -2.4980 c3        1 MOL     -0.127685
    139 C48         5.3540    2.1380   -3.3150 c3        1 MOL      0.053704
    140 C49         6.2370    0.9270   -2.9640 c3        1 MOL     -0.043348
    141 H60         7.4860    3.0440   -0.9890 h1        1 MOL      0.049286
    142 H61         5.2160    4.0110   -2.2950 hc        1 MOL      0.048292
    143 H62         6.8520    3.6810   -2.9480 hc        1 MOL      0.048292
    144 H63         4.3370    2.0480   -2.9390 hc        1 MOL      0.023070
    145 H64         5.3900    2.3250   -4.3810 hc        1 MOL      0.023070
    146 H65         5.7130    0.0220   -3.2750 h1        1 MOL      0.031834
    147 H66         7.1650    0.9880   -3.5290 h1        1 MOL      0.031834
    148 N13         4.6140    2.0440    0.2650 n         1 MOL      0.014179
    149 C50         3.8290    2.1420    1.5330 c3        1 MOL     -0.183600
    150 C51         4.6670    1.5460    2.6680 c         1 MOL      0.442075
    151 O21         4.6200    2.0690    3.8050 o         1 MOL     -0.563450
    152 C52         2.5350    1.4910    1.4180 c3        1 MOL      0.009946
    153 C53         1.6120    2.1810    0.3630 c3        1 MOL     -0.525024
    154 C54         0.2260    1.5760    0.2470 c         1 MOL      0.986019
    155 O22        -0.6940    2.2490   -0.3100 o         1 MOL     -0.805275
    156 O23         0.0840    0.3630    0.4150 o         1 MOL     -0.805275
    157 H67         4.4620    1.2040   -0.2690 hn        1 MOL      0.096286
    158 H68         3.7080    3.2160    1.6930 h1        1 MOL      0.150202
    159 H69         1.9140    1.5730    2.3150 hc        1 MOL      0.098465
    160 H70         2.6020    0.4500    1.0960 hc        1 MOL      0.098465
    161 H71         2.0420    2.0810   -0.6320 hc        1 MOL      0.124405
    162 H72         1.4230    3.1880    0.7270 hc        1 MOL      0.124405
    163 N14         5.4640    0.4710    2.4800 n         1 MOL      0.010480
    164 C55         6.2960   -0.0490    3.6190 c3        1 MOL     -0.339060
    165 H73         6.0460    0.4970    4.5290 h1        1 MOL      0.110644
    166 H74         6.0910   -1.1100    3.7650 h1        1 MOL      0.110644
    167 H75         7.3530    0.0900    3.3920 h1        1 MOL      0.110644
    168 H76         5.5070   -0.0090    1.5880 hn        1 MOL      0.045770
    169 Ca1        -1.6700   -0.2840   -1.2750 Ca        1 MOL      1.758201
    170 O24        -1.1160   -2.3120   -3.1910 oh        1 MOL     -0.992356
    171 H77        -1.3850   -2.7850   -3.9780 ho        1 MOL      0.447320
    172 H78        -0.2830   -1.9090   -3.4280 ho        1 MOL      0.447320
@<TRIPOS>BOND
     1    1    2 1   
     2    1    4 1   
     3    1    5 1   
     4    1    6 1   
     5    2    3 2   
     6    2    7 1   
     7    7    8 1   
     8    7   15 1   
     9    8    9 1   
    10    8   11 1   
    11    8   16 1   
    12    9   10 2   
    13    9   19 1   
    14   11   12 1   
    15   11   17 1   
    16   11   18 1   
    17   12   13 1   
    18   12   14 1   
    19   19   20 1   
    20   19   24 1   
    21   20   21 1   
    22   20   23 1   
    23   20   25 1   
    24   21   22 2   
    25   21   29 1   
    26   23   26 1   
    27   23   27 1   
    28   23   28 1   
    29   29   30 1   
    30   29   37 1   
    31   30   31 1   
    32   30   33 1   
    33   30   38 1   
    34   31   32 2   
    35   31   41 1   
    36   33   34 1   
    37   33   39 1   
    38   33   40 1   
    39   34   35 1   
    40   34   36 1   
    41   41   42 1   
    42   41   45 1   
    43   42   43 1   
    44   42   46 1   
    45   42   47 1   
    46   43   44 2   
    47   43   48 1   
    48   48   49 1   
    49   48   56 1   
    50   49   50 1   
    51   49   52 1   
    52   49   57 1   
    53   50   51 2   
    54   50   62 1   
    55   52   53 1   
    56   52   58 1   
    57   52   59 1   
    58   53   54 1   
    59   53   55 2   
    60   54   60 1   
    61   54   61 1   
    62   62   63 1   
    63   62   66 1   
    64   63   64 1   
    65   63   67 1   
    66   63   68 1   
    67   64   65 2   
    68   64   69 1   
    69   69   70 1   
    70   69   76 1   
    71   70   71 1   
    72   70   73 1   
    73   70   77 1   
    74   71   72 2   
    75   71   83 1   
    76   73   74 1   
    77   73   75 1   
    78   73   78 1   
    79   74   80 1   
    80   74   81 1   
    81   74   82 1   
    82   75   79 1   
    83   83   84 1   
    84   83   91 1   
    85   84   85 1   
    86   84   87 1   
    87   84   92 1   
    88   85   86 2   
    89   85  102 1   
    90   87   88 1   
    91   87   89 1   
    92   87   93 1   
    93   88   90 1   
    94   88   94 1   
    95   88   95 1   
    96   89   96 1   
    97   89   97 1   
    98   89   98 1   
    99   90   99 1   
   100   90  100 1   
   101   90  101 1   
   102  102  103 1   
   103  102  110 1   
   104  103  104 1   
   105  103  106 1   
   106  103  111 1   
   107  104  105 2   
   108  104  114 1   
   109  106  107 1   
   110  106  112 1   
   111  106  113 1   
   112  107  108 1   
   113  107  109 1   
   114  114  115 1   
   115  114  125 1   
   116  115  116 1   
   117  115  118 1   
   118  115  126 1   
   119  116  117 2   
   120  116  134 1   
   121  118  119 1   
   122  118  127 1   
   123  118  128 1   
   124  119  120 ar  
   125  119  121 ar  
   126  120  122 ar  
   127  120  129 1   
   128  121  123 ar  
   129  121  130 1   
   130  122  124 ar  
   131  122  131 1   
   132  123  124 ar  
   133  123  132 1   
   134  124  133 1   
   135  134  135 1   
   136  134  140 1   
   137  135  136 1   
   138  135  138 1   
   139  135  141 1   
   140  136  137 2   
   141  136  148 1   
   142  138  139 1   
   143  138  142 1   
   144  138  143 1   
   145  139  140 1   
   146  139  144 1   
   147  139  145 1   
   148  140  146 1   
   149  140  147 1   
   150  148  149 1   
   151  148  157 1   
   152  149  150 1   
   153  149  152 1   
   154  149  158 1   
   155  150  151 2   
   156  150  163 1   
   157  152  153 1   
   158  152  159 1   
   159  152  160 1   
   160  153  154 1   
   161  153  161 1   
   162  153  162 1   
   163  154  155 1   
   164  154  156 1   
   165  163  164 1   
   166  163  168 1   
   167  164  165 1   
   168  164  166 1   
   169  164  167 1   
   170  170  171 1   
   171  170  172 1   
@<TRIPOS>SUBSTRUCTURE
     1 MOL         1 TEMP              0 ****  ****    0 ROOT
