@<TRIPOS>MOLECULE
MOL
  189   185     1     0     0
SMALL
resp


@<TRIPOS>ATOM
      1 C1          0.1240    1.5300    5.7640 c3        1 MOL     -0.275551
      2 C2         -0.3990    1.5950    4.3770 c         1 MOL      0.795762
      3 O1          0.1030    2.2260    3.5170 o         1 MOL     -0.636428
      4 H1          1.1770    1.8130    5.7690 hc        1 MOL      0.069567
      5 H2         -0.4390    2.2170    6.3980 hc        1 MOL      0.069567
      6 H3          0.0190    0.5140    6.1460 hc        1 MOL      0.069567
      7 N1         -1.6060    1.1070    4.0870 n         1 MOL     -0.687016
      8 C3         -2.2680    1.1080    2.8310 c3        1 MOL      0.426953
      9 C4         -2.6710    2.5390    2.4270 c         1 MOL      0.427910
     10 O2         -3.6270    3.1330    2.9230 o         1 MOL     -0.552014
     11 C5         -3.4770    0.1450    2.8210 c3        1 MOL     -0.512361
     12 C6         -4.2360    0.0020    1.4730 c         1 MOL      0.856473
     13 O3         -3.6360    0.2950    0.4130 o         1 MOL     -0.625705
     14 O4         -5.3720   -0.4210    1.4610 o         1 MOL     -0.625705
     15 H4         -2.1270    0.5840    4.7820 hn        1 MOL      0.305904
     16 H5         -1.5910    0.7080    2.0720 h1        1 MOL     -0.056057
     17 H6         -4.1930    0.5220    3.5450 hc        1 MOL      0.104947
     18 H7         -3.1340   -0.8580    3.0710 hc        1 MOL      0.104947
     19 N2         -1.8330    3.1150    1.5360 n         1 MOL     -0.116346
     20 C7         -1.8970    4.5840    1.1390 c3        1 MOL     -0.039854
     21 C8         -2.8950    4.9490   -0.0020 c         1 MOL      0.455775
     22 O5         -3.4530    6.0360    0.0310 o         1 MOL     -0.549607
     23 C9         -0.4270    5.0200    0.8890 c3        1 MOL     -0.067084
     24 C10        -0.2240    6.5370    0.5870 c3        1 MOL     -0.091020
     25 C11        -0.5780    7.4950    1.7350 c3        1 MOL     -0.063166
     26 C12        -0.0280    8.9140    1.4990 c3        1 MOL      0.141103
     27 N3         -0.4320    9.9130    2.5030 n4        1 MOL     -0.340821
     28 H8         -1.1260    2.4880    1.2000 hn        1 MOL      0.199342
     29 H9         -2.2990    5.1730    1.9600 h1        1 MOL      0.044144
     30 H10        -0.1030    4.5680   -0.0480 hc        1 MOL      0.059071
     31 H11         0.2230    4.7010    1.7030 hc        1 MOL      0.059071
     32 H12        -0.8690    6.8840   -0.2280 hc        1 MOL      0.048152
     33 H13         0.7730    6.6820    0.1760 hc        1 MOL      0.048152
     34 H14        -0.1540    7.0380    2.6290 hc        1 MOL      0.061284
     35 H15        -1.6580    7.6650    1.7870 hc        1 MOL      0.061284
     36 H16        -0.2500    9.2760    0.4900 hx        1 MOL      0.038463
     37 H17         1.0600    8.8370    1.5500 hx        1 MOL      0.038463
     38 H18        -1.4130   10.1690    2.5390 hn        1 MOL      0.316011
     39 H19        -0.0900    9.7760    3.4360 hn        1 MOL      0.316011
     40 H20         0.0030   10.7750    2.1800 hn        1 MOL      0.316011
     41 N4         -3.1110    4.0100   -0.9460 n         1 MOL     -0.261915
     42 C13        -4.1090    4.1550   -2.0040 c3        1 MOL      0.065700
     43 C14        -5.4470    3.4290   -1.7390 c         1 MOL      0.443474
     44 O6         -6.4240    3.7960   -2.4040 o         1 MOL     -0.520798
     45 C15        -3.6690    3.7030   -3.3560 c3        1 MOL     -0.261154
     46 C16        -2.9250    2.3740   -3.4090 c         1 MOL      0.807741
     47 O7         -2.3440    2.0980   -4.4810 o         1 MOL     -0.691951
     48 O8         -2.7790    1.6790   -2.4240 o         1 MOL     -0.691951
     49 H21        -2.8120    3.0780   -0.7000 hn        1 MOL      0.140427
     50 H22        -4.4350    5.1930   -2.0950 h1        1 MOL      0.066108
     51 H23        -2.9400    4.4150   -3.7370 hc        1 MOL      0.062689
     52 H24        -4.5380    3.6480   -3.9990 hc        1 MOL      0.062689
     53 N5         -5.5160    2.6230   -0.6680 n         1 MOL     -0.146441
     54 C17        -6.7490    2.0210   -0.1510 c3        1 MOL     -0.157067
     55 C18        -7.1480    0.7960   -0.9500 c         1 MOL      0.711185
     56 O9         -8.1540    0.9190   -1.5750 o         1 MOL     -0.609297
     57 H25        -4.6460    2.4470   -0.1690 hn        1 MOL      0.147608
     58 H26        -7.6160    2.6820   -0.1350 h1        1 MOL      0.070224
     59 H27        -6.4640    1.6930    0.8560 h1        1 MOL      0.070224
     60 N6         -6.4590   -0.3110   -1.0320 n         1 MOL     -0.316411
     61 C19        -6.7870   -1.5160   -1.7860 c3        1 MOL      0.128428
     62 C20        -6.9430   -2.8120   -0.9040 c         1 MOL      0.337025
     63 O10        -7.2810   -3.8270   -1.4380 o         1 MOL     -0.484125
     64 C21        -5.7970   -1.6740   -2.9820 c3        1 MOL     -0.388602
     65 C22        -4.2880   -1.5930   -2.6630 c         1 MOL      0.803802
     66 O11        -3.8170   -2.1260   -1.6130 o         1 MOL     -0.700668
     67 O12        -3.5120   -1.0860   -3.4740 o         1 MOL     -0.700668
     68 H28        -5.5990   -0.3780   -0.5090 hn        1 MOL     -0.067296
     69 H29        -7.7560   -1.3830   -2.2760 h1        1 MOL      0.088543
     70 H30        -6.1510   -0.8740   -3.6310 hc        1 MOL      0.119222
     71 H31        -5.9540   -2.6570   -3.4230 hc        1 MOL      0.119222
     72 N7         -6.6550   -2.7220    0.4390 n         1 MOL     -0.229198
     73 C23        -6.5940   -3.8910    1.3340 c3        1 MOL     -0.192473
     74 C24        -5.3170   -4.6630    1.0910 c         1 MOL      0.567880
     75 O13        -5.3270   -5.7920    1.5220 o         1 MOL     -0.575231
     76 H32        -6.3530   -1.8390    0.8080 hn        1 MOL      0.223063
     77 H33        -7.4400   -4.5370    1.0730 h1        1 MOL      0.109358
     78 H34        -6.6190   -3.5880    2.3790 h1        1 MOL      0.109358
     79 N8         -4.2750   -4.1420    0.4280 n         1 MOL     -0.223802
     80 C25        -2.9100   -4.7810    0.4280 c3        1 MOL     -0.249213
     81 C26        -1.8620   -3.7360    0.6660 c         1 MOL      0.705069
     82 O14        -2.0160   -2.5520    0.4640 o         1 MOL     -0.662917
     83 C27        -2.6870   -5.4450   -0.9630 c3        1 MOL      0.523321
     84 C28        -3.6040   -6.6100   -1.2350 c3        1 MOL     -0.684120
     85 O15        -2.7320   -4.5740   -2.0270 oh        1 MOL     -0.628830
     86 H35        -4.3800   -3.2180    0.0440 hn        1 MOL      0.208590
     87 H36        -2.7620   -5.5650    1.1710 h1        1 MOL      0.101608
     88 H37        -1.6560   -5.8000   -0.9050 h1        1 MOL     -0.029268
     89 H38        -3.2130   -3.7870   -1.7820 ho        1 MOL      0.419166
     90 H39        -3.6180   -7.3120   -0.4040 hc        1 MOL      0.178439
     91 H40        -4.6380   -6.3070   -1.3970 hc        1 MOL      0.178439
     92 H41        -3.1980   -6.9520   -2.1980 hc        1 MOL      0.178439
     93 N9         -0.6690   -4.3100    1.0160 n         1 MOL     -0.673833
     94 C29         0.5150   -3.5390    1.4100 c3        1 MOL      0.270145
     95 C30         1.7410   -3.8770    0.5220 c         1 MOL      0.385285
     96 O16         2.0160   -5.0620    0.2760 o         1 MOL     -0.533728
     97 C31         0.8240   -3.7000    2.9410 c3        1 MOL     -0.025424
     98 C32        -0.2430   -3.0570    3.8390 c3        1 MOL      0.047345
     99 C33         2.2320   -3.1610    3.3510 c3        1 MOL     -0.115046
    100 C34        -0.2660   -3.4990    5.3670 c3        1 MOL     -0.290306
    101 H42        -0.7040   -5.3020    1.2340 hn        1 MOL      0.321484
    102 H43         0.3080   -2.4900    1.2160 h1        1 MOL      0.046435
    103 H44         0.8320   -4.7780    3.1040 hc        1 MOL      0.041525
    104 H45        -1.2500   -3.0600    3.4110 hc        1 MOL      0.032364
    105 H46        -0.2210   -1.9600    3.8320 hc        1 MOL      0.032364
    106 H47         2.2840   -2.9200    4.4100 hc        1 MOL      0.015187
    107 H48         3.0780   -3.8210    3.1550 hc        1 MOL      0.015187
    108 H49         2.5030   -2.2280    2.8460 hc        1 MOL      0.015187
    109 H50        -0.4890   -4.5580    5.4800 hc        1 MOL      0.073556
    110 H51         0.6360   -3.2000    5.8960 hc        1 MOL      0.073556
    111 H52        -1.1290   -2.9410    5.7500 hc        1 MOL      0.073556
    112 N10         2.5070   -2.8410    0.1470 n         1 MOL     -0.184554
    113 C35         3.7870   -2.9130   -0.5900 c3        1 MOL      0.187063
    114 C36         5.0410   -2.6330    0.1660 c         1 MOL      0.343145
    115 O17         4.9970   -1.9640    1.1650 o         1 MOL     -0.418025
    116 C37         3.7450   -2.1300   -1.8950 c3        1 MOL      0.070496
    117 C38         2.5280   -2.1670   -2.8420 c3        1 MOL     -0.297731
    118 O18         4.0770   -0.7520   -1.5920 oh        1 MOL     -0.418306
    119 H53         2.1130   -1.9250    0.2780 hn        1 MOL      0.191266
    120 H54         3.8950   -3.9540   -0.8920 h1        1 MOL      0.007432
    121 H55         4.6530   -2.3750   -2.4520 h1        1 MOL      0.020955
    122 H56         3.7690   -0.2680   -2.3570 ho        1 MOL      0.350992
    123 H57         2.5800   -1.4930   -3.7000 hc        1 MOL      0.103211
    124 H58         2.5770   -3.1790   -3.2360 hc        1 MOL      0.103211
    125 H59         1.6800   -1.8590   -2.2360 hc        1 MOL      0.103211
    126 N11         6.1700   -3.0660   -0.3240 n         1 MOL     -0.172132
    127 C39         7.4610   -2.5670    0.0960 c3        1 MOL     -0.350210
    128 C40         7.7410   -1.0370    0.0170 c         1 MOL      0.540576
    129 O19         8.4860   -0.5190    0.8450 o         1 MOL     -0.509957
    130 C41         8.5340   -3.1820   -0.7600 c3        1 MOL      0.286269
    131 C42         8.8020   -4.6680   -0.4990 c3        1 MOL     -0.410322
    132 O20         8.2220   -3.1550   -2.1640 oh        1 MOL     -0.657335
    133 H60         6.1550   -3.7020   -1.1180 hn        1 MOL      0.253469
    134 H61         7.5920   -2.9520    1.1090 h1        1 MOL      0.208229
    135 H62         9.4890   -2.6610   -0.6820 h1        1 MOL      0.077304
    136 H63         8.7900   -3.8000   -2.6040 ho        1 MOL      0.424615
    137 H64         9.7090   -4.9620   -1.0190 hc        1 MOL      0.116932
    138 H65         8.8610   -4.7700    0.5800 hc        1 MOL      0.116932
    139 H66         7.9920   -5.2640   -0.9310 hc        1 MOL      0.116932
    140 N12         7.1540   -0.2500   -0.8980 n         1 MOL     -0.365946
    141 C43         7.0710    1.1850   -0.8110 c3        1 MOL      0.062279
    142 C44         6.1540    1.7020    0.3030 c         1 MOL      0.410539
    143 O21         6.5950    2.6330    0.9500 o         1 MOL     -0.547568
    144 C45         6.6070    1.6130   -2.1950 c3        1 MOL     -0.015999
    145 C46         6.8990    3.1090   -2.6170 c3        1 MOL     -0.076021
    146 C47         6.3500    3.4620   -4.0540 c3        1 MOL     -0.195248
    147 C48         7.0560    2.6900   -5.1760 c3        1 MOL      0.008452
    148 N13         8.2850    3.3070   -5.7000 n4        1 MOL     -0.242860
    149 H67         6.4060   -0.6840   -1.4140 hn        1 MOL      0.186845
    150 H68         8.0030    1.7110   -0.5960 h1        1 MOL      0.085917
    151 H69         5.5390    1.4280   -2.3860 hc        1 MOL      0.029404
    152 H70         7.1540    1.0110   -2.9210 hc        1 MOL      0.029404
    153 H71         7.9590    3.3360   -2.5400 hc        1 MOL      0.045105
    154 H72         6.2900    3.6840   -1.9180 hc        1 MOL      0.045105
    155 H73         6.2650    4.5370   -4.2120 hc        1 MOL      0.111229
    156 H74         5.3300    3.0960   -3.9620 hc        1 MOL      0.111229
    157 H75         6.4030    2.7010   -6.0550 hx        1 MOL      0.082954
    158 H76         7.3180    1.6850   -4.8450 hx        1 MOL      0.082954
    159 H77         8.4730    2.9820   -6.6410 hn        1 MOL      0.279384
    160 H78         8.1410    4.3050   -5.7650 hn        1 MOL      0.279384
    161 H79         9.0560    3.0820   -5.0800 hn        1 MOL      0.279384
    162 N14         5.0300    1.0740    0.5640 n         1 MOL      0.022431
    163 C49         4.0400    1.4300    1.6300 c3        1 MOL     -0.369909
    164 C50         4.4560    1.1520    3.0250 c         1 MOL      0.578700
    165 O22         3.9780    1.8390    3.9350 o         1 MOL     -0.551808
    166 C51         2.6690    0.7020    1.3450 c3        1 MOL      0.286651
    167 C52         2.0480    1.2460    0.0770 c3        1 MOL     -0.019201
    168 C53         0.6210    0.7490   -0.1090 c         1 MOL      0.705258
    169 O23        -0.3230    1.4880   -0.3600 o         1 MOL     -0.718676
    170 O24         0.3560   -0.4780   -0.0900 o         1 MOL     -0.718676
    171 H80         4.7600    0.4600   -0.1840 hn        1 MOL      0.004293
    172 H81         3.7920    2.4930    1.5630 h1        1 MOL      0.155628
    173 H82         2.0020    0.8150    2.1980 hc        1 MOL     -0.065588
    174 H83         2.7700   -0.3660    1.1600 hc        1 MOL     -0.065588
    175 H84         2.5990    0.9840   -0.8360 hc        1 MOL     -0.027489
    176 H85         2.0190    2.3370    0.1210 hc        1 MOL     -0.027489
    177 N15         5.3650    0.1590    3.2210 n         1 MOL     -0.215445
    178 C54         6.2090   -0.1750    4.4360 c3        1 MOL     -0.300738
    179 H86         6.8870    0.6520    4.6460 h1        1 MOL      0.122855
    180 H87         5.5600   -0.3390    5.2960 h1        1 MOL      0.122855
    181 H88         6.7870   -1.0780    4.2400 h1        1 MOL      0.122855
    182 H89         5.5970   -0.4270    2.4430 hn        1 MOL      0.225376
    183 Ca1        -1.9330   -0.4920   -1.2530 Ca        1 MOL      1.685841
    184 O25        -0.8070   -2.5700   -2.5400 oh        1 MOL     -0.819114
    185 H90        -1.3270   -3.3410   -2.7320 ho        1 MOL      0.380705
    186 H91         0.0790   -2.8010   -2.8320 ho        1 MOL      0.380705
    187 O26        -0.7350    0.0410   -3.6760 oh        1 MOL     -0.819114
    188 H92        -0.9660   -0.7250   -4.2130 ho        1 MOL      0.380705
    189 H93        -1.4290    0.6740   -3.8650 ho        1 MOL      0.380705
@<TRIPOS>BOND
     1    1    2 1   
     2    1    4 1   
     3    1    5 1   
     4    1    6 1   
     5    2    3 2   
     6    2    7 1   
     7    7    8 1   
     8    7   15 1   
     9    8    9 1   
    10    8   11 1   
    11    8   16 1   
    12    9   10 2   
    13    9   19 1   
    14   11   12 1   
    15   11   17 1   
    16   11   18 1   
    17   12   13 1   
    18   12   14 1   
    19   19   20 1   
    20   19   28 1   
    21   20   21 1   
    22   20   23 1   
    23   20   29 1   
    24   21   22 2   
    25   21   41 1   
    26   23   24 1   
    27   23   30 1   
    28   23   31 1   
    29   24   25 1   
    30   24   32 1   
    31   24   33 1   
    32   25   26 1   
    33   25   34 1   
    34   25   35 1   
    35   26   27 1   
    36   26   36 1   
    37   26   37 1   
    38   27   38 1   
    39   27   39 1   
    40   27   40 1   
    41   41   42 1   
    42   41   49 1   
    43   42   43 1   
    44   42   45 1   
    45   42   50 1   
    46   43   44 2   
    47   43   53 1   
    48   45   46 1   
    49   45   51 1   
    50   45   52 1   
    51   46   47 1   
    52   46   48 1   
    53   53   54 1   
    54   53   57 1   
    55   54   55 1   
    56   54   58 1   
    57   54   59 1   
    58   55   56 2   
    59   55   60 1   
    60   60   61 1   
    61   60   68 1   
    62   61   62 1   
    63   61   64 1   
    64   61   69 1   
    65   62   63 2   
    66   62   72 1   
    67   64   65 1   
    68   64   70 1   
    69   64   71 1   
    70   65   66 1   
    71   65   67 1   
    72   72   73 1   
    73   72   76 1   
    74   73   74 1   
    75   73   77 1   
    76   73   78 1   
    77   74   75 2   
    78   74   79 1   
    79   79   80 1   
    80   79   86 1   
    81   80   81 1   
    82   80   83 1   
    83   80   87 1   
    84   81   82 2   
    85   81   93 1   
    86   83   84 1   
    87   83   85 1   
    88   83   88 1   
    89   84   90 1   
    90   84   91 1   
    91   84   92 1   
    92   85   89 1   
    93   93   94 1   
    94   93  101 1   
    95   94   95 1   
    96   94   97 1   
    97   94  102 1   
    98   95   96 2   
    99   95  112 1   
   100   97   98 1   
   101   97   99 1   
   102   97  103 1   
   103   98  100 1   
   104   98  104 1   
   105   98  105 1   
   106   99  106 1   
   107   99  107 1   
   108   99  108 1   
   109  100  109 1   
   110  100  110 1   
   111  100  111 1   
   112  112  113 1   
   113  112  119 1   
   114  113  114 1   
   115  113  116 1   
   116  113  120 1   
   117  114  115 2   
   118  114  126 1   
   119  116  117 1   
   120  116  118 1   
   121  116  121 1   
   122  117  123 1   
   123  117  124 1   
   124  117  125 1   
   125  118  122 1   
   126  126  127 1   
   127  126  133 1   
   128  127  128 1   
   129  127  130 1   
   130  127  134 1   
   131  128  129 2   
   132  128  140 1   
   133  130  131 1   
   134  130  132 1   
   135  130  135 1   
   136  131  137 1   
   137  131  138 1   
   138  131  139 1   
   139  132  136 1   
   140  140  141 1   
   141  140  149 1   
   142  141  142 1   
   143  141  144 1   
   144  141  150 1   
   145  142  143 2   
   146  142  162 1   
   147  144  145 1   
   148  144  151 1   
   149  144  152 1   
   150  145  146 1   
   151  145  153 1   
   152  145  154 1   
   153  146  147 1   
   154  146  155 1   
   155  146  156 1   
   156  147  148 1   
   157  147  157 1   
   158  147  158 1   
   159  148  159 1   
   160  148  160 1   
   161  148  161 1   
   162  162  163 1   
   163  162  171 1   
   164  163  164 1   
   165  163  166 1   
   166  163  172 1   
   167  164  165 2   
   168  164  177 1   
   169  166  167 1   
   170  166  173 1   
   171  166  174 1   
   172  167  168 1   
   173  167  175 1   
   174  167  176 1   
   175  168  169 1   
   176  168  170 1   
   177  177  178 1   
   178  177  182 1   
   179  178  179 1   
   180  178  180 1   
   181  178  181 1   
   182  184  185 1   
   183  184  186 1   
   184  187  188 1   
   185  187  189 1   
@<TRIPOS>SUBSTRUCTURE
     1 MOL         1 TEMP              0 ****  ****    0 ROOT
