@<TRIPOS>MOLECULE
MOL
  186   183     1     0     0
SMALL
resp


@<TRIPOS>ATOM
      1 C1          0.3220    1.5650    5.5680 c3        1 MOL     -0.399171
      2 C2         -0.4490    1.6180    4.2300 c         1 MOL      0.661337
      3 O1          0.1130    2.1570    3.2690 o         1 MOL     -0.600735
      4 H1          0.7360    2.5500    5.7870 hc        1 MOL      0.111127
      5 H2         -0.3560    1.2700    6.3680 hc        1 MOL      0.111127
      6 H3          1.1330    0.8410    5.4920 hc        1 MOL      0.111127
      7 N1         -1.6860    1.0630    4.0870 n         1 MOL     -0.465764
      8 C3         -2.4650    1.0350    2.8380 c3        1 MOL     -0.114855
      9 C4         -3.1070    2.4310    2.4890 c         1 MOL      0.546943
     10 O2         -4.2980    2.6120    2.5210 o         1 MOL     -0.502979
     11 C5         -3.4920   -0.1310    3.0100 c3        1 MOL     -0.059364
     12 C6         -4.0590   -0.6300    1.6760 c         1 MOL      0.586148
     13 O3         -3.2450   -0.7780    0.7310 o         1 MOL     -0.674146
     14 O4         -5.2820   -0.8000    1.5050 o         1 MOL     -0.674146
     15 H4         -2.0440    0.6600    4.9470 hn        1 MOL      0.292496
     16 H5         -1.7920    0.8400    2.0030 h1        1 MOL      0.097122
     17 H6         -4.3750    0.0470    3.6380 hc        1 MOL      0.043351
     18 H7         -3.1090   -0.9840    3.5710 hc        1 MOL      0.043351
     19 N2         -2.2440    3.3420    2.0200 n         1 MOL     -0.309489
     20 C7         -2.5870    4.7330    1.9410 c3        1 MOL     -0.095446
     21 C8         -3.6370    5.1110    0.8750 c         1 MOL      0.528141
     22 O5         -4.4150    5.9890    1.1090 o         1 MOL     -0.526858
     23 C9         -1.3240    5.5500    1.8000 c3        1 MOL     -0.011538
     24 C10        -0.4560    5.3850    0.5010 c3        1 MOL      0.179607
     25 C11         1.0290    5.8160    0.5190 c3        1 MOL     -0.257942
     26 C12         1.2290    7.2830    0.8800 c3        1 MOL      0.084859
     27 N3          2.6070    7.8270    0.6590 n4        1 MOL     -0.495512
     28 H8         -1.2550    3.1460    2.0440 hn        1 MOL      0.313041
     29 H9         -2.9570    4.9640    2.9400 h1        1 MOL      0.088451
     30 H10        -0.6610    5.2890    2.6400 hc        1 MOL     -0.004939
     31 H11        -1.5280    6.6220    1.8200 hc        1 MOL     -0.004939
     32 H12        -0.9540    5.9440   -0.3010 hc        1 MOL     -0.029470
     33 H13        -0.4370    4.3120    0.3150 hc        1 MOL     -0.029470
     34 H14         1.5080    5.5540   -0.4210 hc        1 MOL      0.114793
     35 H15         1.5790    5.2210    1.2580 hc        1 MOL      0.114793
     36 H16         0.9920    7.4310    1.9300 hx        1 MOL      0.086333
     37 H17         0.4730    7.8340    0.3220 hx        1 MOL      0.086333
     38 H18         3.2600    7.1290    0.9850 hn        1 MOL      0.361773
     39 H19         2.7540    8.0080   -0.3200 hn        1 MOL      0.361773
     40 H20         2.6490    8.6890    1.1920 hn        1 MOL      0.361773
     41 N4         -3.5010    4.2780   -0.1940 n         1 MOL     -0.365028
     42 C13        -4.3430    4.1910   -1.4170 c3        1 MOL     -0.031890
     43 C14        -5.7480    3.5110   -1.1910 c         1 MOL      0.455524
     44 O6         -6.6490    3.7790   -1.9430 o         1 MOL     -0.537234
     45 C15        -3.5620    3.6070   -2.5870 c3        1 MOL     -0.223469
     46 C16        -2.9220    2.3160   -2.4110 c         1 MOL      0.813104
     47 O7         -3.2240    1.6690   -1.4120 o         1 MOL     -0.775667
     48 O8         -1.9960    1.9540   -3.2070 o         1 MOL     -0.775667
     49 H21        -2.7570    3.5990   -0.2260 hn        1 MOL      0.276658
     50 H22        -4.5670    5.2240   -1.6940 h1        1 MOL      0.077923
     51 H23        -2.7720    4.3000   -2.8640 hc        1 MOL      0.055840
     52 H24        -4.3030    3.6380   -3.3870 hc        1 MOL      0.055840
     53 N5         -5.8910    2.7180   -0.1600 n         1 MOL     -0.188218
     54 C17        -7.1700    2.0400    0.2080 c3        1 MOL     -0.262836
     55 C18        -7.4510    0.8050   -0.7260 c         1 MOL      0.580421
     56 O9         -8.6110    0.5220   -0.9420 o         1 MOL     -0.577345
     57 H25        -5.0970    2.5840    0.4490 hn        1 MOL      0.236335
     58 H26        -7.9200    2.8360    0.1180 h1        1 MOL      0.130270
     59 H27        -7.0620    1.7190    1.2450 h1        1 MOL      0.130270
     60 N6         -6.4350    0.2030   -1.3030 n         1 MOL     -0.299020
     61 C19        -6.6630   -1.0080   -2.1900 c3        1 MOL     -0.070546
     62 C20        -6.8550   -2.3660   -1.4440 c         1 MOL      0.481831
     63 O10        -7.2120   -3.3140   -2.1070 o         1 MOL     -0.550565
     64 C21        -5.5960   -1.0380   -3.3090 c3        1 MOL     -0.053548
     65 C22        -4.2070   -1.3010   -2.7780 c         1 MOL      0.722967
     66 O11        -3.2520   -0.7890   -3.4620 o         1 MOL     -0.671022
     67 O12        -3.9710   -1.9890   -1.8170 o         1 MOL     -0.671022
     68 H28        -5.5020    0.5770   -1.1660 hn        1 MOL      0.268400
     69 H29        -7.5650   -0.9420   -2.8110 h1        1 MOL      0.109061
     70 H30        -5.4920   -0.0290   -3.7150 hc        1 MOL      0.029360
     71 H31        -5.7980   -1.6730   -4.1830 hc        1 MOL      0.029360
     72 N7         -6.6390   -2.5210   -0.1500 n         1 MOL     -0.360592
     73 C23        -6.6230   -3.8040    0.5810 c3        1 MOL      0.005303
     74 C24        -5.2440   -4.4800    0.7360 c         1 MOL      0.451183
     75 O13        -5.1880   -5.5530    1.4050 o         1 MOL     -0.586123
     76 H32        -6.2840   -1.7080    0.3360 hn        1 MOL      0.294304
     77 H33        -7.2990   -4.5000    0.0910 h1        1 MOL      0.075397
     78 H34        -7.0990   -3.6310    1.5480 h1        1 MOL      0.075397
     79 N8         -4.1460   -3.9690    0.1440 n         1 MOL     -0.264606
     80 C25        -2.8730   -4.6370   -0.0180 c3        1 MOL     -0.071845
     81 C26        -1.6630   -3.7170    0.2590 c         1 MOL      0.482094
     82 O14        -1.3550   -2.9310   -0.5750 o         1 MOL     -0.542079
     83 C27        -2.8040   -5.3740   -1.3950 c3        1 MOL      0.325580
     84 C28        -3.6170   -6.6860   -1.5070 c3        1 MOL     -0.268926
     85 O15        -3.4380   -4.5370   -2.3820 oh        1 MOL     -0.552232
     86 H35        -4.2240   -3.0730   -0.3140 hn        1 MOL      0.369449
     87 H36        -2.7960   -5.4920    0.6560 h1        1 MOL      0.077334
     88 H37        -1.8090   -5.5750   -1.7740 h1        1 MOL      0.020328
     89 H38        -3.2000   -3.6370   -2.1480 ho        1 MOL      0.289104
     90 H39        -3.2050   -7.3680   -0.7680 hc        1 MOL      0.070059
     91 H40        -4.6720   -6.5310   -1.2660 hc        1 MOL      0.070059
     92 H41        -3.4530   -7.1680   -2.4630 hc        1 MOL      0.070059
     93 N9         -0.8380   -4.0210    1.2970 n         1 MOL     -0.560593
     94 C29         0.3920   -3.3210    1.5620 c3        1 MOL     -0.082703
     95 C30         1.4810   -3.6960    0.5230 c         1 MOL      0.850583
     96 O16         1.5230   -4.8600    0.1940 o         1 MOL     -0.581595
     97 C31         0.8180   -3.5020    3.0320 c3        1 MOL      0.323429
     98 C32        -0.1420   -3.0650    4.1220 c3        1 MOL     -0.003892
     99 C33         2.2220   -2.8810    3.2120 c3        1 MOL     -0.275036
    100 C34         0.2630   -3.3800    5.6090 c3        1 MOL     -0.215252
    101 H42        -1.0810   -4.7190    1.9810 hn        1 MOL      0.328076
    102 H43         0.2390   -2.2470    1.4010 h1        1 MOL      0.039628
    103 H44         0.9550   -4.5820    3.1030 hc        1 MOL     -0.051026
    104 H45        -1.1270   -3.4940    3.9030 hc        1 MOL      0.010251
    105 H46        -0.1420   -1.9820    4.0700 hc        1 MOL      0.010251
    106 H47         2.9210   -3.6430    2.8490 hc        1 MOL      0.032419
    107 H48         2.4100   -1.9550    2.6670 hc        1 MOL      0.032419
    108 H49         2.5150   -2.7470    4.2460 hc        1 MOL      0.032419
    109 H50        -0.5140   -3.1380    6.3280 hc        1 MOL      0.056738
    110 H51         0.4830   -4.4460    5.6790 hc        1 MOL      0.056738
    111 H52         1.1900   -2.8610    5.8670 hc        1 MOL      0.056738
    112 N10         2.3830   -2.7040    0.1880 n         1 MOL     -0.712299
    113 C35         3.5920   -2.9500   -0.6660 c3        1 MOL      0.121519
    114 C36         4.9500   -2.7270    0.0240 c         1 MOL      0.366863
    115 O17         4.9700   -2.0640    1.0820 o         1 MOL     -0.372382
    116 C37         3.6140   -2.0910   -1.9500 c3        1 MOL      0.093278
    117 C38         2.4600   -2.4120   -2.8710 c3        1 MOL     -0.288637
    118 O18         3.6140   -0.7140   -1.5760 oh        1 MOL     -0.375904
    119 H53         2.2370   -1.7940    0.5780 hn        1 MOL      0.498037
    120 H54         3.6430   -3.9770   -1.0320 h1        1 MOL      0.041794
    121 H55         4.5330   -2.3950   -2.4620 h1        1 MOL      0.029316
    122 H56         2.8300   -0.2570   -1.9130 ho        1 MOL      0.302457
    123 H57         2.0690   -1.4960   -3.3160 hc        1 MOL      0.092311
    124 H58         2.7470   -3.0950   -3.6620 hc        1 MOL      0.092311
    125 H59         1.6190   -2.9220   -2.3960 hc        1 MOL      0.092311
    126 N11         6.0550   -3.0510   -0.6670 n         1 MOL     -0.314533
    127 C39         7.4490   -2.7490   -0.2000 c3        1 MOL     -0.147348
    128 C40         7.6840   -1.2050   -0.1690 c         1 MOL      0.421427
    129 O19         8.4240   -0.7260    0.6750 o         1 MOL     -0.474682
    130 C41         8.4880   -3.4670   -1.1230 c3        1 MOL      0.241681
    131 C42         8.4580   -4.9800   -0.8560 c3        1 MOL     -0.327395
    132 O20         8.2120   -3.3560   -2.5150 oh        1 MOL     -0.625550
    133 H60         5.9660   -3.7060   -1.4360 hn        1 MOL      0.309543
    134 H61         7.6560   -3.0730    0.8290 h1        1 MOL      0.152823
    135 H62         9.4710   -3.0890   -0.8750 h1        1 MOL      0.064137
    136 H63         9.0180   -3.7370   -2.8590 ho        1 MOL      0.417562
    137 H64         8.4620   -5.1770    0.2140 hc        1 MOL      0.094421
    138 H65         7.6230   -5.4590   -1.3520 hc        1 MOL      0.094421
    139 H66         9.3940   -5.3370   -1.2820 hc        1 MOL      0.094421
    140 N12         7.0080   -0.4750   -1.0820 n         1 MOL     -0.230761
    141 C43         7.1250    0.9680   -1.1750 c3        1 MOL     -0.174406
    142 C44         6.4400    1.5990    0.0110 c         1 MOL      0.231032
    143 O21         6.9840    2.4670    0.7400 o         1 MOL     -0.482313
    144 C45         6.7050    1.4420   -2.5400 c3        1 MOL      0.126657
    145 C46         7.0170    2.9480   -2.7950 c3        1 MOL      0.086515
    146 C47         6.7580    3.5230   -4.1850 c3        1 MOL      0.005887
    147 C48         5.3130    3.6430   -4.4920 c3        1 MOL      0.129897
    148 N13         5.0650    4.5850   -5.5780 n4        1 MOL     -0.321636
    149 H67         6.4250   -0.9340   -1.7720 hn        1 MOL      0.205727
    150 H68         8.2100    1.0890   -1.0960 h1        1 MOL      0.165888
    151 H69         5.6370    1.2490   -2.6130 hc        1 MOL     -0.026168
    152 H70         7.2910    0.8540   -3.2510 hc        1 MOL     -0.026168
    153 H71         8.0440    3.0590   -2.4460 hc        1 MOL     -0.013106
    154 H72         6.4440    3.5420   -2.0840 hc        1 MOL     -0.013106
    155 H73         7.2240    2.9280   -4.9660 hc        1 MOL      0.005059
    156 H74         7.0970    4.5590   -4.2170 hc        1 MOL      0.005059
    157 H75         4.8660    3.9620   -3.5500 hx        1 MOL      0.019436
    158 H76         5.0430    2.6150   -4.7110 hx        1 MOL      0.019436
    159 H77         4.0780    4.7410   -5.7110 hn        1 MOL      0.280003
    160 H78         5.5080    5.4700   -5.3450 hn        1 MOL      0.280003
    161 H79         5.5070    4.2510   -6.4220 hn        1 MOL      0.280003
    162 N14         5.2330    1.1180    0.3170 n         1 MOL      0.151035
    163 C49         4.3960    1.5430    1.4230 c3        1 MOL     -0.248116
    164 C50         5.0470    1.2040    2.7790 c         1 MOL      0.491927
    165 O22         4.9890    1.9930    3.6870 o         1 MOL     -0.554060
    166 C51         2.9950    0.8520    1.3480 c3        1 MOL      0.105072
    167 C52         2.1380    1.6470    0.3010 c3        1 MOL     -0.157566
    168 C53         0.7610    0.9960   -0.0720 c         1 MOL      0.738764
    169 O23        -0.2960    1.6790   -0.2500 o         1 MOL     -0.799350
    170 O24         0.6770   -0.2290   -0.3230 o         1 MOL     -0.799350
    171 H80         4.7780    0.4560   -0.3020 hn        1 MOL      0.056893
    172 H81         4.2240    2.6050    1.2750 h1        1 MOL      0.069125
    173 H82         2.5170    0.8160    2.3210 hc        1 MOL      0.033361
    174 H83         3.1420   -0.1590    0.9640 hc        1 MOL      0.033361
    175 H84         2.6700    1.9600   -0.5990 hc        1 MOL     -0.000362
    176 H85         2.0050    2.6480    0.7120 hc        1 MOL     -0.000362
    177 N15         5.6530    0.0440    2.9860 n         1 MOL     -0.036362
    178 C54         6.3600   -0.3130    4.1970 c3        1 MOL     -0.455971
    179 H86         7.2800    0.2680    4.2660 h1        1 MOL      0.151896
    180 H87         5.7310   -0.1010    5.0620 h1        1 MOL      0.151896
    181 H88         6.6030   -1.3760    4.1760 h1        1 MOL      0.151896
    182 H89         5.5660   -0.6930    2.3020 hn        1 MOL      0.122483
    183 Ca1        -1.7010   -0.3590   -1.2950 Ca        1 MOL      1.744000
    184 O25        -0.4110   -0.7390   -3.4610 oh        1 MOL     -0.896780
    185 H90        -0.6320   -0.5110   -4.3690 ho        1 MOL      0.446885
    186 H91         0.5320   -0.5710   -3.4010 ho        1 MOL      0.446885
@<TRIPOS>BOND
     1    1    2 1   
     2    1    4 1   
     3    1    5 1   
     4    1    6 1   
     5    2    3 2   
     6    2    7 1   
     7    7    8 1   
     8    7   15 1   
     9    8    9 1   
    10    8   11 1   
    11    8   16 1   
    12    9   10 2   
    13    9   19 1   
    14   11   12 1   
    15   11   17 1   
    16   11   18 1   
    17   12   13 1   
    18   12   14 1   
    19   19   20 1   
    20   19   28 1   
    21   20   21 1   
    22   20   23 1   
    23   20   29 1   
    24   21   22 2   
    25   21   41 1   
    26   23   24 1   
    27   23   30 1   
    28   23   31 1   
    29   24   25 1   
    30   24   32 1   
    31   24   33 1   
    32   25   26 1   
    33   25   34 1   
    34   25   35 1   
    35   26   27 1   
    36   26   36 1   
    37   26   37 1   
    38   27   38 1   
    39   27   39 1   
    40   27   40 1   
    41   41   42 1   
    42   41   49 1   
    43   42   43 1   
    44   42   45 1   
    45   42   50 1   
    46   43   44 2   
    47   43   53 1   
    48   45   46 1   
    49   45   51 1   
    50   45   52 1   
    51   46   47 1   
    52   46   48 1   
    53   53   54 1   
    54   53   57 1   
    55   54   55 1   
    56   54   58 1   
    57   54   59 1   
    58   55   56 2   
    59   55   60 1   
    60   60   61 1   
    61   60   68 1   
    62   61   62 1   
    63   61   64 1   
    64   61   69 1   
    65   62   63 2   
    66   62   72 1   
    67   64   65 1   
    68   64   70 1   
    69   64   71 1   
    70   65   66 1   
    71   65   67 1   
    72   72   73 1   
    73   72   76 1   
    74   73   74 1   
    75   73   77 1   
    76   73   78 1   
    77   74   75 2   
    78   74   79 1   
    79   79   80 1   
    80   79   86 1   
    81   80   81 1   
    82   80   83 1   
    83   80   87 1   
    84   81   82 2   
    85   81   93 1   
    86   83   84 1   
    87   83   85 1   
    88   83   88 1   
    89   84   90 1   
    90   84   91 1   
    91   84   92 1   
    92   85   89 1   
    93   93   94 1   
    94   93  101 1   
    95   94   95 1   
    96   94   97 1   
    97   94  102 1   
    98   95   96 2   
    99   95  112 1   
   100   97   98 1   
   101   97   99 1   
   102   97  103 1   
   103   98  100 1   
   104   98  104 1   
   105   98  105 1   
   106   99  106 1   
   107   99  107 1   
   108   99  108 1   
   109  100  109 1   
   110  100  110 1   
   111  100  111 1   
   112  112  113 1   
   113  112  119 1   
   114  113  114 1   
   115  113  116 1   
   116  113  120 1   
   117  114  115 2   
   118  114  126 1   
   119  116  117 1   
   120  116  118 1   
   121  116  121 1   
   122  117  123 1   
   123  117  124 1   
   124  117  125 1   
   125  118  122 1   
   126  126  127 1   
   127  126  133 1   
   128  127  128 1   
   129  127  130 1   
   130  127  134 1   
   131  128  129 2   
   132  128  140 1   
   133  130  131 1   
   134  130  132 1   
   135  130  135 1   
   136  131  137 1   
   137  131  138 1   
   138  131  139 1   
   139  132  136 1   
   140  140  141 1   
   141  140  149 1   
   142  141  142 1   
   143  141  144 1   
   144  141  150 1   
   145  142  143 2   
   146  142  162 1   
   147  144  145 1   
   148  144  151 1   
   149  144  152 1   
   150  145  146 1   
   151  145  153 1   
   152  145  154 1   
   153  146  147 1   
   154  146  155 1   
   155  146  156 1   
   156  147  148 1   
   157  147  157 1   
   158  147  158 1   
   159  148  159 1   
   160  148  160 1   
   161  148  161 1   
   162  162  163 1   
   163  162  171 1   
   164  163  164 1   
   165  163  166 1   
   166  163  172 1   
   167  164  165 2   
   168  164  177 1   
   169  166  167 1   
   170  166  173 1   
   171  166  174 1   
   172  167  168 1   
   173  167  175 1   
   174  167  176 1   
   175  168  169 1   
   176  168  170 1   
   177  177  178 1   
   178  177  182 1   
   179  178  179 1   
   180  178  180 1   
   181  178  181 1   
   182  184  185 1   
   183  184  186 1   
@<TRIPOS>SUBSTRUCTURE
     1 MOL         1 TEMP              0 ****  ****    0 ROOT
