@<TRIPOS>MOLECULE
MOL
  189   185     1     0     0
SMALL
resp


@<TRIPOS>ATOM
      1 C1          2.2940   -2.5440    6.4900 c3        1 MOL     -0.432836
      2 C2          1.9850   -2.5650    4.9810 c         1 MOL      0.671621
      3 O1          1.4610   -1.6030    4.3950 o         1 MOL     -0.535716
      4 H1          3.0970   -1.8350    6.6860 hc        1 MOL      0.113399
      5 H2          1.4010   -2.2430    7.0400 hc        1 MOL      0.113399
      6 H3          2.6010   -3.5390    6.8120 hc        1 MOL      0.113399
      7 N1          2.4860   -3.5670    4.2150 n         1 MOL     -0.663259
      8 C3          2.6460   -3.5630    2.7870 c3        1 MOL      0.342183
      9 C4          2.3600   -4.8550    2.0520 c         1 MOL      0.465472
     10 O2          2.5740   -5.9320    2.6050 o         1 MOL     -0.582965
     11 C5          4.1260   -3.1260    2.6540 c3        1 MOL     -0.264943
     12 C6          4.4990   -3.0480    1.1640 c         1 MOL      0.641492
     13 O3          3.7370   -2.3640    0.4250 o         1 MOL     -0.643199
     14 O4          5.4190   -3.7900    0.6960 o         1 MOL     -0.643199
     15 H4          3.0530   -4.2090    4.7510 hn        1 MOL      0.325208
     16 H5          2.0490   -2.7810    2.3230 h1        1 MOL      0.037658
     17 H6          4.6760   -3.9650    3.0670 hc        1 MOL      0.028652
     18 H7          4.3890   -2.1650    3.0850 hc        1 MOL      0.028652
     19 N2          2.0630   -4.6980    0.7340 n         1 MOL      0.042378
     20 C7          1.8940   -5.7910   -0.1750 c3        1 MOL     -0.302278
     21 C8          2.5670   -5.4600   -1.4990 c         1 MOL      0.556914
     22 O5          2.6750   -6.3830   -2.3170 o         1 MOL     -0.612465
     23 C9          0.4100   -6.0900   -0.3560 c3        1 MOL      0.157660
     24 C10        -0.3280   -4.8390   -0.8550 c3        1 MOL      0.076633
     25 C11        -0.2150   -6.6140    1.0000 c3        1 MOL     -0.200160
     26 C12        -1.7580   -5.2200   -1.3390 c3        1 MOL     -0.218458
     27 H8          1.8610   -3.7510    0.4280 hn        1 MOL     -0.029138
     28 H9          2.4480   -6.6520    0.1890 h1        1 MOL      0.132069
     29 H10         0.1710   -6.8610   -1.0740 hc        1 MOL     -0.010270
     30 H11         0.2490   -4.3730   -1.6660 hc        1 MOL      0.022291
     31 H12        -0.2770   -4.2630    0.0620 hc        1 MOL      0.022291
     32 H13        -1.2740   -6.8950    0.9800 hc        1 MOL      0.036690
     33 H14         0.3040   -7.5410    1.2460 hc        1 MOL      0.036690
     34 H15        -0.0310   -5.9150    1.8060 hc        1 MOL      0.036690
     35 H16        -2.3270   -4.2950   -1.3750 hc        1 MOL      0.050656
     36 H17        -1.7620   -5.7640   -2.2810 hc        1 MOL      0.050656
     37 H18        -2.3250   -5.8220   -0.6250 hc        1 MOL      0.050656
     38 N3          3.0530   -4.2770   -1.7640 n         1 MOL     -0.131562
     39 C13         3.4920   -3.8530   -3.1030 c3        1 MOL     -0.162979
     40 C14         4.8180   -3.1120   -3.1670 c         1 MOL      0.323895
     41 O6          5.4730   -3.0750   -4.2750 o         1 MOL     -0.532704
     42 C15         2.4460   -3.0500   -3.8850 c3        1 MOL     -0.052703
     43 C16         1.9610   -1.7950   -3.1240 c         1 MOL      0.725841
     44 O7          2.7200   -1.2320   -2.2830 o         1 MOL     -0.707811
     45 O8          0.8600   -1.4070   -3.4140 o         1 MOL     -0.707811
     46 H19         3.0610   -3.5770   -1.0310 hn        1 MOL      0.125820
     47 H20         3.7070   -4.8040   -3.5830 h1        1 MOL      0.121049
     48 H21         1.5670   -3.6900   -3.9520 hc        1 MOL      0.032414
     49 H22         2.7210   -2.8730   -4.9310 hc        1 MOL      0.032414
     50 N4          5.3150   -2.5830   -2.0220 n         1 MOL      0.168425
     51 C17         6.6400   -2.1010   -1.8900 c3        1 MOL     -0.164496
     52 C18         6.8710   -0.7930   -2.6430 c         1 MOL      0.616053
     53 O9          7.6220   -0.8140   -3.5450 o         1 MOL     -0.560166
     54 H23         4.6920   -2.6780   -1.2300 hn        1 MOL     -0.025250
     55 H24         7.2630   -2.8610   -2.3810 h1        1 MOL      0.047398
     56 H25         6.9820   -2.1160   -0.8510 h1        1 MOL      0.047398
     57 N5          6.2740    0.3100   -2.2600 n         1 MOL     -0.579685
     58 C19         6.2570    1.5970   -2.9780 c3        1 MOL      0.274602
     59 C20         6.8430    2.7740   -2.1870 c         1 MOL      0.339081
     60 O10         7.2270    3.7660   -2.8280 o         1 MOL     -0.521963
     61 C21         4.8290    1.9810   -3.4820 c3        1 MOL     -0.155320
     62 C22         3.7620    2.1030   -2.4160 c         1 MOL      0.591743
     63 O11         3.9580    1.6300   -1.2820 o         1 MOL     -0.663578
     64 O12         2.6350    2.5630   -2.7880 o         1 MOL     -0.663578
     65 H26         5.7030    0.3240   -1.4290 hn        1 MOL      0.241702
     66 H27         6.8450    1.4910   -3.8820 h1        1 MOL      0.039124
     67 H28         4.5020    1.3570   -4.3140 hc        1 MOL      0.060760
     68 H29         4.9190    2.9660   -3.9600 hc        1 MOL      0.060760
     69 N6          6.8590    2.6990   -0.8310 n         1 MOL     -0.310711
     70 C23         7.0560    3.9100   -0.0090 c3        1 MOL     -0.114053
     71 C24         5.8780    4.4260    0.8370 c         1 MOL      0.440728
     72 O13         6.0790    5.3070    1.6670 o         1 MOL     -0.565258
     73 H30         6.6730    1.8350   -0.3410 hn        1 MOL      0.210330
     74 H31         7.4070    4.6740   -0.7030 h1        1 MOL      0.100614
     75 H32         7.8570    3.6790    0.6820 h1        1 MOL      0.100614
     76 N7          4.6530    3.9350    0.5890 n         1 MOL     -0.405268
     77 C25         3.3950    4.4290    1.2060 c3        1 MOL      0.106722
     78 C26         2.3020    3.3240    1.4670 c         1 MOL      0.416961
     79 O14         2.0030    2.4300    0.6910 o         1 MOL     -0.575883
     80 C27         2.7390    5.3570    0.2200 c3        1 MOL      0.018183
     81 C28         3.5020    6.6980    0.2270 c3        1 MOL     -0.283090
     82 C29         2.6120    7.8580   -0.2540 c         1 MOL      0.600876
     83 N8          2.1220    7.7730   -1.4690 n         1 MOL     -0.751418
     84 O15         2.2730    8.7660    0.4520 o         1 MOL     -0.551275
     85 H33         4.5320    3.1960   -0.0930 hn        1 MOL      0.404624
     86 H34         3.5660    4.8030    2.2160 h1        1 MOL      0.073003
     87 H35         1.6900    5.5150    0.4600 hc        1 MOL      0.065134
     88 H36         2.8400    4.9620   -0.7880 hc        1 MOL      0.065134
     89 H37         4.3080    6.5970   -0.4900 hc        1 MOL      0.094761
     90 H38         3.9120    6.8760    1.2170 hc        1 MOL      0.094761
     91 H39         2.4370    7.0490   -2.0930 hn        1 MOL      0.347338
     92 H40         1.7830    8.6370   -1.8670 hn        1 MOL      0.347338
     93 N9          1.6620    3.3670    2.6450 n         1 MOL     -0.663742
     94 C30         0.3980    2.6350    2.7770 c3        1 MOL      0.021842
     95 C31        -0.6730    3.2570    1.8070 c         1 MOL      0.545890
     96 O16        -0.9580    4.4230    1.9980 o         1 MOL     -0.575705
     97 C32        -0.1500    2.4970    4.2010 c3        1 MOL      0.147092
     98 C33        -1.4070    1.5940    4.4120 c3        1 MOL     -0.094286
     99 C34         1.0450    2.0390    5.1080 c3        1 MOL     -0.094286
    100 H41         1.7790    4.1720    3.2360 hn        1 MOL      0.362200
    101 H42         0.5210    1.5780    2.5370 h1        1 MOL      0.222809
    102 H43        -0.4060    3.4830    4.5830 hc        1 MOL     -0.020453
    103 H44        -2.2890    1.9020    3.8350 hc        1 MOL      0.007468
    104 H45        -1.0560    0.5800    4.2260 hc        1 MOL      0.007468
    105 H46        -1.5860    1.6920    5.4750 hc        1 MOL      0.007468
    106 H47         0.7660    1.8700    6.1390 hc        1 MOL      0.007468
    107 H48         1.4290    1.0780    4.7670 hc        1 MOL      0.007468
    108 H49         1.7700    2.8290    5.2720 hc        1 MOL      0.007468
    109 N10        -1.2650    2.4150    0.9210 n         1 MOL     -0.153356
    110 C35        -2.5020    2.8400    0.2250 c3        1 MOL      0.010390
    111 C36        -3.7950    2.3480    0.9800 c         1 MOL      0.480365
    112 O17        -3.6710    1.4480    1.8120 o         1 MOL     -0.485371
    113 C37        -2.4170    2.4170   -1.2740 c3        1 MOL     -0.106913
    114 C38        -2.8530    0.9890   -1.6420 c         1 MOL      0.543488
    115 N11        -1.9090    0.0620   -1.7880 n         1 MOL     -0.627746
    116 O18        -4.0450    0.6990   -1.7560 o         1 MOL     -0.524380
    117 H50        -0.9970    1.4430    0.9880 hn        1 MOL      0.030772
    118 H51        -2.6200    3.9220    0.3250 h1        1 MOL      0.047261
    119 H52        -1.4010    2.5230   -1.6480 hc        1 MOL      0.036559
    120 H53        -3.0720    3.1190   -1.8010 hc        1 MOL      0.036559
    121 H54        -0.9300    0.3210   -1.7890 hn        1 MOL      0.354583
    122 H55        -2.2500   -0.7660   -2.2550 hn        1 MOL      0.354583
    123 N12        -4.9610    2.9440    0.6240 n         1 MOL     -0.367407
    124 C39        -6.2020    2.6610    1.3450 c3        1 MOL      0.048965
    125 C40        -6.6220    1.1590    1.2830 c         1 MOL      0.378437
    126 O19        -7.3290    0.6950    2.2010 o         1 MOL     -0.572901
    127 C41        -7.3380    3.5340    0.7790 c3        1 MOL     -0.163045
    128 C42        -7.7740    3.1750   -0.6070 ca        1 MOL      0.118744
    129 C43        -8.9460    2.3630   -0.6910 ca        1 MOL     -0.271408
    130 C44        -7.0600    3.5480   -1.7260 ca        1 MOL     -0.271408
    131 C45        -9.3940    2.0260   -1.9830 ca        1 MOL     -0.177678
    132 C46        -7.4540    3.1840   -3.0100 ca        1 MOL     -0.177678
    133 C47        -8.5710    2.3740   -3.1530 ca        1 MOL      0.157592
    134 O20        -8.7380    1.8750   -4.3970 oh        1 MOL     -0.399741
    135 H56        -4.9670    3.7410    0.0060 hn        1 MOL      0.253896
    136 H57        -6.1160    2.9310    2.3920 h1        1 MOL      0.062657
    137 H58        -7.0440    4.5820    0.7290 hc        1 MOL      0.055044
    138 H59        -8.2260    3.4530    1.4030 hc        1 MOL      0.055044
    139 H60        -9.3920    1.9680    0.2080 ha        1 MOL      0.162355
    140 H61        -6.2490    4.2450   -1.5890 ha        1 MOL      0.162355
    141 H62       -10.2700    1.4150   -2.1180 ha        1 MOL      0.145304
    142 H63        -6.9880    3.5960   -3.8920 ha        1 MOL      0.145304
    143 H64        -9.6110    1.4950   -4.4740 ho        1 MOL      0.360117
    144 N13        -6.3780    0.4350    0.1950 n         1 MOL      0.127348
    145 C48        -6.9200   -0.8120   -0.1360 c3        1 MOL     -0.215503
    146 C49        -5.9710   -1.8370    0.4520 c         1 MOL      0.292723
    147 O21        -6.3900   -2.9360    0.7990 o         1 MOL     -0.504315
    148 C50        -7.0230   -0.9550   -1.6670 c3        1 MOL      0.269204
    149 C51        -8.0800   -2.0710   -2.0290 c3        1 MOL     -0.295260
    150 C52        -8.2250   -2.2650   -3.5340 c         1 MOL      0.752630
    151 O22        -7.7000   -1.4290   -4.3200 o         1 MOL     -0.759604
    152 O23        -8.8110   -3.2990   -3.9280 o         1 MOL     -0.759604
    153 H65        -5.7280    0.7910   -0.4950 hn        1 MOL      0.091550
    154 H66        -7.8560   -1.0140    0.3770 h1        1 MOL      0.097015
    155 H67        -6.0930   -1.1490   -2.2010 hc        1 MOL      0.008626
    156 H68        -7.2560    0.0190   -2.1000 hc        1 MOL      0.008626
    157 H69        -9.0540   -1.7130   -1.7110 hc        1 MOL      0.033087
    158 H70        -7.8460   -3.0210   -1.5560 hc        1 MOL      0.033087
    159 N14        -4.6770   -1.5780    0.4370 n         1 MOL      0.093870
    160 C53        -3.7020   -2.3420    1.1270 c3        1 MOL     -0.268024
    161 C54        -4.0500   -2.3950    2.5890 c         1 MOL      0.451626
    162 O24        -3.8290   -3.4890    3.1570 o         1 MOL     -0.558220
    163 C55        -2.3170   -1.7410    0.8280 c3        1 MOL      0.034324
    164 C56        -1.1340   -2.1440    1.6610 c3        1 MOL     -0.062613
    165 C57         0.0830   -1.5730    1.0110 c         1 MOL      0.465797
    166 O25         0.2730   -0.3490    1.0850 o         1 MOL     -0.611384
    167 O26         1.0270   -2.2120    0.4140 o         1 MOL     -0.611384
    168 H71        -4.3570   -0.7730   -0.0910 hn        1 MOL     -0.047386
    169 H72        -3.5850   -3.3280    0.6730 h1        1 MOL      0.142152
    170 H73        -2.3800   -0.6650    0.7330 hc        1 MOL      0.051418
    171 H74        -2.2670   -2.2720   -0.1240 hc        1 MOL      0.051418
    172 H75        -1.1110   -3.2350    1.6770 hc        1 MOL      0.046190
    173 H76        -1.2360   -1.7690    2.6780 hc        1 MOL      0.046190
    174 N15        -4.6410   -1.3910    3.2320 n         1 MOL     -0.117397
    175 C58        -4.9560   -1.3520    4.6810 c3        1 MOL     -0.055360
    176 H77        -4.2210   -0.7330    5.1960 h1        1 MOL      0.042789
    177 H78        -5.9510   -0.9310    4.8260 h1        1 MOL      0.042789
    178 H79        -4.9260   -2.3630    5.0870 h1        1 MOL      0.042789
    179 H80        -4.8700   -0.5440    2.7250 hn        1 MOL      0.160640
    180 Ca1         2.5980   -0.0660    0.0450 Ca        1 MOL      1.695719
    181 O27         2.8560   -0.0720    2.7720 oh        1 MOL     -0.736818
    182 H81         3.6500    0.0080    3.2920 ho        1 MOL      0.372306
    183 H82         2.1960   -0.4250    3.3700 ho        1 MOL      0.372306
    184 O28         5.2610    0.5860    1.0830 oh        1 MOL     -0.736818
    185 H83         5.1830    0.9700    1.9590 ho        1 MOL      0.372306
    186 H84         6.1430    0.2180    1.0540 ho        1 MOL      0.372306
    187 O29         0.7550    0.9070   -2.0570 oh        1 MOL     -0.736818
    188 H85         1.1230    0.2030   -2.5690 ho        1 MOL      0.372306
    189 H86         1.2790    1.6770   -2.2900 ho        1 MOL      0.372306
@<TRIPOS>BOND
     1    1    2 1   
     2    1    4 1   
     3    1    5 1   
     4    1    6 1   
     5    2    3 2   
     6    2    7 1   
     7    7    8 1   
     8    7   15 1   
     9    8    9 1   
    10    8   11 1   
    11    8   16 1   
    12    9   10 2   
    13    9   19 1   
    14   11   12 1   
    15   11   17 1   
    16   11   18 1   
    17   12   13 1   
    18   12   14 1   
    19   19   20 1   
    20   19   27 1   
    21   20   21 1   
    22   20   23 1   
    23   20   28 1   
    24   21   22 2   
    25   21   38 1   
    26   23   24 1   
    27   23   25 1   
    28   23   29 1   
    29   24   26 1   
    30   24   30 1   
    31   24   31 1   
    32   25   32 1   
    33   25   33 1   
    34   25   34 1   
    35   26   35 1   
    36   26   36 1   
    37   26   37 1   
    38   38   39 1   
    39   38   46 1   
    40   39   40 1   
    41   39   42 1   
    42   39   47 1   
    43   40   41 2   
    44   40   50 1   
    45   42   43 1   
    46   42   48 1   
    47   42   49 1   
    48   43   44 1   
    49   43   45 1   
    50   50   51 1   
    51   50   54 1   
    52   51   52 1   
    53   51   55 1   
    54   51   56 1   
    55   52   53 2   
    56   52   57 1   
    57   57   58 1   
    58   57   65 1   
    59   58   59 1   
    60   58   61 1   
    61   58   66 1   
    62   59   60 2   
    63   59   69 1   
    64   61   62 1   
    65   61   67 1   
    66   61   68 1   
    67   62   63 1   
    68   62   64 1   
    69   69   70 1   
    70   69   73 1   
    71   70   71 1   
    72   70   74 1   
    73   70   75 1   
    74   71   72 2   
    75   71   76 1   
    76   76   77 1   
    77   76   85 1   
    78   77   78 1   
    79   77   80 1   
    80   77   86 1   
    81   78   79 2   
    82   78   93 1   
    83   80   81 1   
    84   80   87 1   
    85   80   88 1   
    86   81   82 1   
    87   81   89 1   
    88   81   90 1   
    89   82   83 1   
    90   82   84 2   
    91   83   91 1   
    92   83   92 1   
    93   93   94 1   
    94   93  100 1   
    95   94   95 1   
    96   94   97 1   
    97   94  101 1   
    98   95   96 2   
    99   95  109 1   
   100   97   98 1   
   101   97   99 1   
   102   97  102 1   
   103   98  103 1   
   104   98  104 1   
   105   98  105 1   
   106   99  106 1   
   107   99  107 1   
   108   99  108 1   
   109  109  110 1   
   110  109  117 1   
   111  110  111 1   
   112  110  113 1   
   113  110  118 1   
   114  111  112 2   
   115  111  123 1   
   116  113  114 1   
   117  113  119 1   
   118  113  120 1   
   119  114  115 1   
   120  114  116 2   
   121  115  121 1   
   122  115  122 1   
   123  123  124 1   
   124  123  135 1   
   125  124  125 1   
   126  124  127 1   
   127  124  136 1   
   128  125  126 2   
   129  125  144 1   
   130  127  128 1   
   131  127  137 1   
   132  127  138 1   
   133  128  129 ar  
   134  128  130 ar  
   135  129  131 ar  
   136  129  139 1   
   137  130  132 ar  
   138  130  140 1   
   139  131  133 ar  
   140  131  141 1   
   141  132  133 ar  
   142  132  142 1   
   143  133  134 1   
   144  134  143 1   
   145  144  145 1   
   146  144  153 1   
   147  145  146 1   
   148  145  148 1   
   149  145  154 1   
   150  146  147 2   
   151  146  159 1   
   152  148  149 1   
   153  148  155 1   
   154  148  156 1   
   155  149  150 1   
   156  149  157 1   
   157  149  158 1   
   158  150  151 1   
   159  150  152 1   
   160  159  160 1   
   161  159  168 1   
   162  160  161 1   
   163  160  163 1   
   164  160  169 1   
   165  161  162 2   
   166  161  174 1   
   167  163  164 1   
   168  163  170 1   
   169  163  171 1   
   170  164  165 1   
   171  164  172 1   
   172  164  173 1   
   173  165  166 1   
   174  165  167 1   
   175  174  175 1   
   176  174  179 1   
   177  175  176 1   
   178  175  177 1   
   179  175  178 1   
   180  181  182 1   
   181  181  183 1   
   182  184  185 1   
   183  184  186 1   
   184  187  188 1   
   185  187  189 1   
@<TRIPOS>SUBSTRUCTURE
     1 MOL         1 TEMP              0 ****  ****    0 ROOT
