@<TRIPOS>MOLECULE
MOL
  175   173     1     0     0
SMALL
resp


@<TRIPOS>ATOM
      1 C1          0.5240    5.0210    4.9040 c3        1 MOL     -0.367245
      2 C2         -0.1870    4.8200    3.5710 c         1 MOL      0.648955
      3 O1          0.4000    5.0340    2.5150 o         1 MOL     -0.510713
      4 H1         -0.0960    4.6250    5.7090 hc        1 MOL      0.090026
      5 H2          1.4790    4.4970    4.8890 hc        1 MOL      0.090026
      6 H3          0.6950    6.0850    5.0680 hc        1 MOL      0.090026
      7 N1         -1.4710    4.4270    3.5290 n         1 MOL     -0.565402
      8 C3         -2.1660    4.0300    2.2910 c3        1 MOL      0.047804
      9 C4         -2.4170    5.1930    1.2280 c         1 MOL      0.638702
     10 O2         -2.4260    6.4070    1.5490 o         1 MOL     -0.563721
     11 C5         -3.4710    3.4450    2.7470 c3        1 MOL     -0.274922
     12 C6         -4.0750    2.4980    1.7020 c         1 MOL      0.867266
     13 O3         -5.0680    1.8880    2.0490 o         1 MOL     -0.701674
     14 O4         -3.5440    2.2050    0.6240 o         1 MOL     -0.701674
     15 H4         -1.8930    4.4780    4.4470 hn        1 MOL      0.318976
     16 H5         -1.6240    3.2340    1.7850 h1        1 MOL      0.094838
     17 H6         -4.2820    4.1700    2.7800 hc        1 MOL      0.055890
     18 H7         -3.4410    2.9630    3.7300 hc        1 MOL      0.055890
     19 N2         -2.5990    4.7550   -0.0140 n         1 MOL     -0.732277
     20 C7         -2.8970    5.6160   -1.0980 c3        1 MOL      0.371380
     21 C8         -3.9980    5.0030   -2.0400 c         1 MOL      0.423746
     22 O5         -4.4560    5.5950   -3.0160 o         1 MOL     -0.561606
     23 C9         -1.5640    5.8130   -1.8170 c3        1 MOL     -0.339511
     24 H8         -2.5870    3.7720   -0.2370 hn        1 MOL      0.457513
     25 H9         -3.2370    6.5990   -0.7840 h1        1 MOL      0.004094
     26 H10        -0.8480    6.0430   -1.0310 hc        1 MOL      0.089746
     27 H11        -1.2840    4.8840   -2.3230 hc        1 MOL      0.089746
     28 H12        -1.6370    6.6320   -2.5310 hc        1 MOL      0.089746
     29 N3         -4.4600    3.7730   -1.7570 n         1 MOL     -0.458134
     30 C10        -5.2880    2.9790   -2.6980 c3        1 MOL      0.434341
     31 C11        -6.3650    2.0960   -2.0660 c         1 MOL      0.145947
     32 O6         -7.3820    1.7800   -2.6720 o         1 MOL     -0.509065
     33 C12        -4.5160    1.9800   -3.6060 c3        1 MOL     -0.227946
     34 C13        -3.5300    1.0820   -2.8250 c         1 MOL      0.697433
     35 O7         -2.3050    1.0480   -3.0540 o         1 MOL     -0.663171
     36 O8         -3.9010    0.4200   -1.8180 o         1 MOL     -0.663171
     37 H13        -3.9590    3.2510   -1.0510 hn        1 MOL      0.203932
     38 H14        -5.8210    3.7050   -3.3280 h1        1 MOL      0.020109
     39 H15        -4.0310    2.5340   -4.4040 hc        1 MOL      0.035273
     40 H16        -5.2760    1.2890   -3.9680 hc        1 MOL      0.035273
     41 N4         -6.1890    1.6820   -0.8040 n         1 MOL      0.072176
     42 C14        -7.1990    0.9020   -0.0750 c3        1 MOL     -0.312719
     43 C15        -7.2880   -0.5310   -0.6850 c         1 MOL      0.517766
     44 O9         -8.3570   -1.1640   -0.5620 o         1 MOL     -0.642529
     45 H17        -5.2910    1.8180   -0.3640 hn        1 MOL     -0.081258
     46 H18        -8.1830    1.3720   -0.2050 h1        1 MOL      0.138853
     47 H19        -6.9560    0.8160    0.9810 h1        1 MOL      0.138853
     48 N5         -6.2740   -1.0240   -1.3060 n         1 MOL     -0.175106
     49 C16        -6.1990   -2.4660   -1.9900 c3        1 MOL     -0.264612
     50 C17        -6.1590   -3.7050   -1.0920 c         1 MOL      0.550898
     51 O10        -6.1140   -4.8220   -1.5250 o         1 MOL     -0.540626
     52 C18        -5.0250   -2.4370   -2.9640 c3        1 MOL      0.100013
     53 C19        -3.6330   -2.6550   -2.3170 c         1 MOL      0.211446
     54 N6         -2.6970   -2.8780   -3.2290 n         1 MOL     -0.417595
     55 O11        -3.4170   -2.5610   -1.1390 o         1 MOL     -0.407537
     56 H20        -5.4300   -0.4660   -1.2890 hn        1 MOL      0.259585
     57 H21        -7.0690   -2.5730   -2.6350 h1        1 MOL      0.158674
     58 H22        -4.9260   -1.4520   -3.4410 hc        1 MOL      0.017959
     59 H23        -5.3160   -3.0340   -3.8290 hc        1 MOL      0.017959
     60 H24        -2.9650   -3.0820   -4.1830 hn        1 MOL      0.274726
     61 H25        -1.7180   -2.9640   -2.9860 hn        1 MOL      0.274726
     62 N7         -6.2790   -3.4740    0.2050 n         1 MOL     -0.248424
     63 C20        -6.1630   -4.5800    1.2480 c3        1 MOL     -0.345586
     64 C21        -4.7880   -4.8320    1.8260 c         1 MOL      0.595495
     65 O12        -4.7010   -5.6590    2.7280 o         1 MOL     -0.597898
     66 H26        -6.2490   -2.4800    0.4130 hn        1 MOL      0.217968
     67 H27        -6.4950   -5.5460    0.8650 h1        1 MOL      0.155076
     68 H28        -6.7310   -4.2050    2.1020 h1        1 MOL      0.155076
     69 N8         -3.7530   -4.1680    1.3550 n         1 MOL     -0.270907
     70 C22        -2.3870   -4.4550    1.6700 c3        1 MOL     -0.366135
     71 C23        -1.4810   -3.2260    1.8990 c         1 MOL      0.787748
     72 O13        -1.8100   -2.1870    1.3970 o         1 MOL     -0.723433
     73 C24        -1.7210   -5.2580    0.5810 c3        1 MOL      0.689648
     74 C25        -2.2980   -6.6500    0.4400 c3        1 MOL     -0.393198
     75 O14        -1.8420   -4.7440   -0.7080 oh        1 MOL     -0.708176
     76 H29        -4.0170   -3.5310    0.6180 hn        1 MOL      0.276648
     77 H30        -2.3820   -5.0750    2.5680 h1        1 MOL      0.114734
     78 H31        -0.6710   -5.4210    0.8160 h1        1 MOL     -0.071095
     79 H32        -2.2430   -3.8750   -0.7340 ho        1 MOL      0.433324
     80 H33        -2.1490   -7.1580    1.3940 hc        1 MOL      0.079416
     81 H34        -3.3370   -6.7390    0.1030 hc        1 MOL      0.079416
     82 H35        -1.8120   -7.2940   -0.2830 hc        1 MOL      0.079416
     83 N9         -0.3780   -3.3850    2.6040 n         1 MOL     -0.570303
     84 C26         0.7580   -2.4680    2.4470 c3        1 MOL      0.151013
     85 C27         1.4370   -2.8160    1.0940 c         1 MOL      0.271186
     86 O15         1.6320   -3.9660    0.7010 o         1 MOL     -0.550190
     87 C28         1.8280   -2.6260    3.5970 c3        1 MOL      0.206059
     88 C29         1.2560   -2.0270    4.8770 c3        1 MOL      0.133197
     89 C30         3.2110   -2.0570    3.2480 c3        1 MOL     -0.097950
     90 C31         1.9780   -2.6670    6.1070 c3        1 MOL     -0.239140
     91 H36        -0.2460   -4.2590    3.0900 hn        1 MOL      0.271525
     92 H37         0.3750   -1.4460    2.4710 h1        1 MOL     -0.008886
     93 H38         1.9530   -3.7050    3.7140 hc        1 MOL     -0.033122
     94 H39         0.1790   -2.1850    4.9230 hc        1 MOL     -0.031643
     95 H40         1.4070   -0.9550    4.8250 hc        1 MOL     -0.031643
     96 H41         3.6090   -2.4480    2.3170 hc        1 MOL      0.005970
     97 H42         3.1830   -0.9720    3.2980 hc        1 MOL      0.005970
     98 H43         3.9570   -2.4070    3.9550 hc        1 MOL      0.005970
     99 H44         3.0340   -2.4080    6.0620 hc        1 MOL      0.043381
    100 H45         1.4310   -2.3460    6.9940 hc        1 MOL      0.043381
    101 H46         1.8950   -3.7510    6.0490 hc        1 MOL      0.043381
    102 N10         1.8230   -1.8190    0.3740 n         1 MOL     -0.056948
    103 C32         2.5840   -1.9210   -0.8810 c3        1 MOL      0.146565
    104 C33         4.0750   -1.3660   -0.6370 c         1 MOL      0.357486
    105 O16         4.3180   -0.5620    0.2700 o         1 MOL     -0.267745
    106 C34         1.8520   -1.3270   -2.0760 c3        1 MOL     -0.226028
    107 C35         0.4040   -1.7040   -2.1880 c         1 MOL      0.648218
    108 O17        -0.4750   -1.3750   -1.3350 o         1 MOL     -0.654320
    109 O18        -0.0310   -2.1500   -3.2940 o         1 MOL     -0.654320
    110 H47         1.6680   -0.8890    0.7160 hn        1 MOL      0.153222
    111 H48         2.7770   -2.9470   -1.2020 h1        1 MOL      0.052377
    112 H49         2.2870   -1.6660   -3.0190 hc        1 MOL      0.070806
    113 H50         1.8750   -0.2410   -2.0990 hc        1 MOL      0.070806
    114 N11         5.0970   -1.8660   -1.3070 n         1 MOL     -0.664958
    115 C36         6.4780   -1.4290   -1.0510 c3        1 MOL      0.373260
    116 C37         6.8150    0.0560   -1.1480 c         1 MOL      0.172158
    117 O19         7.4210    0.5480   -0.2060 o         1 MOL     -0.441727
    118 C38         7.4470   -2.3330   -1.9120 c3        1 MOL     -0.278742
    119 C39         8.9000   -2.1590   -1.6240 ca        1 MOL      0.115173
    120 C40         9.7700   -2.2860   -2.7770 ca        1 MOL     -0.104380
    121 C41         9.4400   -2.0640   -0.2920 ca        1 MOL     -0.104380
    122 C42        11.1810   -2.1720   -2.6400 ca        1 MOL     -0.199948
    123 C43        10.8740   -1.9630   -0.2420 ca        1 MOL     -0.199948
    124 C44        11.7490   -1.8800   -1.3650 ca        1 MOL     -0.062219
    125 H51         4.9580   -2.5230   -2.0560 hn        1 MOL      0.347056
    126 H52         6.7010   -1.6110   -0.0030 h1        1 MOL      0.087711
    127 H53         7.2410   -2.2130   -2.9680 hc        1 MOL      0.080410
    128 H54         7.2810   -3.3970   -1.6900 hc        1 MOL      0.080410
    129 H55         9.3680   -2.5530   -3.7420 ha        1 MOL      0.107584
    130 H56         8.7930   -2.0200    0.5710 ha        1 MOL      0.107584
    131 H57        11.8430   -2.0070   -3.4720 ha        1 MOL      0.126071
    132 H58        11.3440   -1.8630    0.7300 ha        1 MOL      0.126071
    133 H59        12.7910   -1.6420   -1.2250 ha        1 MOL      0.106907
    134 N12         6.2670    0.8340   -2.1270 n         1 MOL      0.006663
    135 C45         6.4860    2.2740   -2.0720 c3        1 MOL      0.008299
    136 C46         5.7700    2.8650   -0.7730 c         1 MOL      0.292552
    137 O20         6.1250    3.9790   -0.3680 o         1 MOL     -0.505786
    138 C47         5.9900    2.7860   -3.4410 c3        1 MOL     -0.036199
    139 C48         5.7010    1.5800   -4.3020 c3        1 MOL      0.061244
    140 C49         5.7110    0.3200   -3.3960 c3        1 MOL      0.045002
    141 H60         7.5430    2.5170   -1.9710 h1        1 MOL      0.067653
    142 H61         5.0960    3.4070   -3.3840 hc        1 MOL      0.033498
    143 H62         6.7420    3.4870   -3.7990 hc        1 MOL      0.033498
    144 H63         4.8190    1.7230   -4.9070 hc        1 MOL     -0.008918
    145 H64         6.5680    1.4760   -4.9570 hc        1 MOL     -0.008918
    146 H65         4.7020   -0.0790   -3.3000 h1        1 MOL     -0.002799
    147 H66         6.3830   -0.4530   -3.7710 h1        1 MOL     -0.002799
    148 N13         4.8010    2.1780   -0.1130 n         1 MOL     -0.088360
    149 C50         4.2110    2.6190    1.1990 c3        1 MOL     -0.029374
    150 C51         4.9910    2.1700    2.4500 c         1 MOL      0.429126
    151 O21         5.1720    2.9530    3.3810 o         1 MOL     -0.577007
    152 C52         2.8090    2.1550    1.3950 c3        1 MOL     -0.032143
    153 C53         1.9060    2.6260    0.2750 c3        1 MOL     -0.274281
    154 C54         0.4770    1.9510    0.3150 c         1 MOL      0.711866
    155 O22        -0.4190    2.3130   -0.4900 o         1 MOL     -0.708307
    156 O23         0.2870    0.8410    0.8790 o         1 MOL     -0.708307
    157 H67         4.4180    1.4180   -0.6400 hn        1 MOL      0.116148
    158 H68         4.0780    3.6970    1.1420 h1        1 MOL      0.101355
    159 H69         2.3990    2.6100    2.2930 hc        1 MOL      0.018144
    160 H70         2.7130    1.0760    1.4980 hc        1 MOL      0.018144
    161 H71         2.2840    2.2790   -0.6870 hc        1 MOL      0.100166
    162 H72         1.7950    3.6990    0.4160 hc        1 MOL      0.100166
    163 N14         5.5980    1.0340    2.3670 n         1 MOL      0.075567
    164 C55         6.6240    0.5100    3.3000 c3        1 MOL     -0.314525
    165 H73         6.1440    0.1850    4.2230 h1        1 MOL      0.107031
    166 H74         7.1370   -0.3350    2.8410 h1        1 MOL      0.107031
    167 H75         7.3470    1.2950    3.5250 h1        1 MOL      0.107031
    168 H76         5.3870    0.4820    1.5490 hn        1 MOL     -0.032218
    169 Ca1        -2.1090    0.0400   -0.0290 Ca        1 MOL      1.689933
    170 O24        -4.4550   -0.5310    1.2940 oh        1 MOL     -0.719570
    171 H77        -4.6970    0.3590    1.5560 ho        1 MOL      0.354848
    172 H78        -4.7930   -1.0900    1.9930 ho        1 MOL      0.354848
    173 O25        -1.6710    0.6900    2.5220 oh        1 MOL     -0.719570
    174 H79        -0.7360    0.8930    2.4460 ho        1 MOL      0.354848
    175 H80        -1.8690    0.8310    3.4420 ho        1 MOL      0.354848
@<TRIPOS>BOND
     1    1    2 1   
     2    1    4 1   
     3    1    5 1   
     4    1    6 1   
     5    2    3 2   
     6    2    7 1   
     7    7    8 1   
     8    7   15 1   
     9    8    9 1   
    10    8   11 1   
    11    8   16 1   
    12    9   10 2   
    13    9   19 1   
    14   11   12 1   
    15   11   17 1   
    16   11   18 1   
    17   12   13 1   
    18   12   14 1   
    19   19   20 1   
    20   19   24 1   
    21   20   21 1   
    22   20   23 1   
    23   20   25 1   
    24   21   22 2   
    25   21   29 1   
    26   23   26 1   
    27   23   27 1   
    28   23   28 1   
    29   29   30 1   
    30   29   37 1   
    31   30   31 1   
    32   30   33 1   
    33   30   38 1   
    34   31   32 2   
    35   31   41 1   
    36   33   34 1   
    37   33   39 1   
    38   33   40 1   
    39   34   35 1   
    40   34   36 1   
    41   41   42 1   
    42   41   45 1   
    43   42   43 1   
    44   42   46 1   
    45   42   47 1   
    46   43   44 2   
    47   43   48 1   
    48   48   49 1   
    49   48   56 1   
    50   49   50 1   
    51   49   52 1   
    52   49   57 1   
    53   50   51 2   
    54   50   62 1   
    55   52   53 1   
    56   52   58 1   
    57   52   59 1   
    58   53   54 1   
    59   53   55 2   
    60   54   60 1   
    61   54   61 1   
    62   62   63 1   
    63   62   66 1   
    64   63   64 1   
    65   63   67 1   
    66   63   68 1   
    67   64   65 2   
    68   64   69 1   
    69   69   70 1   
    70   69   76 1   
    71   70   71 1   
    72   70   73 1   
    73   70   77 1   
    74   71   72 2   
    75   71   83 1   
    76   73   74 1   
    77   73   75 1   
    78   73   78 1   
    79   74   80 1   
    80   74   81 1   
    81   74   82 1   
    82   75   79 1   
    83   83   84 1   
    84   83   91 1   
    85   84   85 1   
    86   84   87 1   
    87   84   92 1   
    88   85   86 2   
    89   85  102 1   
    90   87   88 1   
    91   87   89 1   
    92   87   93 1   
    93   88   90 1   
    94   88   94 1   
    95   88   95 1   
    96   89   96 1   
    97   89   97 1   
    98   89   98 1   
    99   90   99 1   
   100   90  100 1   
   101   90  101 1   
   102  102  103 1   
   103  102  110 1   
   104  103  104 1   
   105  103  106 1   
   106  103  111 1   
   107  104  105 2   
   108  104  114 1   
   109  106  107 1   
   110  106  112 1   
   111  106  113 1   
   112  107  108 1   
   113  107  109 1   
   114  114  115 1   
   115  114  125 1   
   116  115  116 1   
   117  115  118 1   
   118  115  126 1   
   119  116  117 2   
   120  116  134 1   
   121  118  119 1   
   122  118  127 1   
   123  118  128 1   
   124  119  120 ar  
   125  119  121 ar  
   126  120  122 ar  
   127  120  129 1   
   128  121  123 ar  
   129  121  130 1   
   130  122  124 ar  
   131  122  131 1   
   132  123  124 ar  
   133  123  132 1   
   134  124  133 1   
   135  134  135 1   
   136  134  140 1   
   137  135  136 1   
   138  135  138 1   
   139  135  141 1   
   140  136  137 2   
   141  136  148 1   
   142  138  139 1   
   143  138  142 1   
   144  138  143 1   
   145  139  140 1   
   146  139  144 1   
   147  139  145 1   
   148  140  146 1   
   149  140  147 1   
   150  148  149 1   
   151  148  157 1   
   152  149  150 1   
   153  149  152 1   
   154  149  158 1   
   155  150  151 2   
   156  150  163 1   
   157  152  153 1   
   158  152  159 1   
   159  152  160 1   
   160  153  154 1   
   161  153  161 1   
   162  153  162 1   
   163  154  155 1   
   164  154  156 1   
   165  163  164 1   
   166  163  168 1   
   167  164  165 1   
   168  164  166 1   
   169  164  167 1   
   170  170  171 1   
   171  170  172 1   
   172  173  174 1   
   173  173  175 1   
@<TRIPOS>SUBSTRUCTURE
     1 MOL         1 TEMP              0 ****  ****    0 ROOT
