@<TRIPOS>MOLECULE
MOL
  179   176     1     0     0
SMALL
resp


@<TRIPOS>ATOM
      1 C1          2.1300    2.7490    5.2420 c3        1 MOL     -0.334834
      2 C2          1.4970    2.5190    3.8760 c         1 MOL      0.852588
      3 O1          2.1560    2.3990    2.8740 o         1 MOL     -0.665842
      4 H1          3.2150    2.6820    5.1560 hc        1 MOL      0.084558
      5 H2          1.8570    3.7390    5.6080 hc        1 MOL      0.084558
      6 H3          1.7740    1.9920    5.9410 hc        1 MOL      0.084558
      7 N1          0.1750    2.5770    3.7070 n         1 MOL     -0.729951
      8 C3         -0.5340    2.4430    2.4210 c3        1 MOL      0.446089
      9 C4         -0.4050    3.7230    1.5950 c         1 MOL      0.258009
     10 O2         -0.9140    4.7960    2.0200 o         1 MOL     -0.552827
     11 C5         -1.9730    2.0470    2.5870 c3        1 MOL     -0.129535
     12 C6         -2.6520    1.6400    1.2860 c         1 MOL      0.847422
     13 O3         -3.7820    1.1500    1.3020 o         1 MOL     -0.757970
     14 O4         -2.0350    1.9390    0.2300 o         1 MOL     -0.757970
     15 H4         -0.4180    2.6870    4.5180 hn        1 MOL      0.314278
     16 H5         -0.0100    1.6040    1.9560 h1        1 MOL     -0.030001
     17 H6         -2.5210    2.8010    3.1550 hc        1 MOL      0.014325
     18 H7         -1.8980    1.1360    3.1700 hc        1 MOL      0.014325
     19 N2          0.4550    3.7840    0.5270 n         1 MOL      0.054105
     20 C7          0.8820    5.0280   -0.1620 c3        1 MOL     -0.039691
     21 C8         -0.1660    5.3960   -1.2200 c         1 MOL      0.555268
     22 O5         -0.1040    6.4830   -1.8390 o         1 MOL     -0.565738
     23 C9          2.3610    4.8950   -0.7090 c3        1 MOL     -0.056299
     24 C10         3.4670    4.5310    0.3430 c3        1 MOL      0.036789
     25 C11         3.3920    5.4600    1.5280 c3        1 MOL     -0.091991
     26 C12         4.6930    5.5350    2.2890 c3        1 MOL      0.109729
     27 N3          4.6570    6.6320    3.3300 n4        1 MOL     -0.536915
     28 H8          0.8150    2.9210    0.1350 hn        1 MOL      0.139079
     29 H9          0.8280    5.8380    0.5540 h1        1 MOL      0.031010
     30 H10         2.5050    5.8640   -1.2060 hc        1 MOL      0.029298
     31 H11         2.3700    4.1160   -1.4720 hc        1 MOL      0.029298
     32 H12         4.4470    4.6970   -0.1080 hc        1 MOL      0.026160
     33 H13         3.3470    3.5760    0.8470 hc        1 MOL      0.026160
     34 H14         2.6130    5.1020    2.2050 hc        1 MOL      0.046805
     35 H15         3.1400    6.4800    1.2460 hc        1 MOL      0.046805
     36 H16         5.5180    5.8610    1.6590 hx        1 MOL      0.080925
     37 H17         5.0060    4.5680    2.6940 hx        1 MOL      0.080925
     38 H18         4.2340    7.5010    3.0350 hn        1 MOL      0.366834
     39 H19         4.2170    6.2270    4.1370 hn        1 MOL      0.366834
     40 H20         5.6340    6.8590    3.4590 hn        1 MOL      0.366834
     41 N4         -1.1700    4.5330   -1.4290 n         1 MOL     -0.356867
     42 C13        -2.1930    4.7840   -2.4930 c3        1 MOL      0.036716
     43 C14        -3.6240    4.6640   -1.9760 c         1 MOL      0.438028
     44 O6         -4.4920    5.3030   -2.5740 o         1 MOL     -0.533832
     45 C15        -1.9690    3.8670   -3.7010 c3        1 MOL     -0.147129
     46 C16        -1.9100    2.4250   -3.2940 c         1 MOL      0.809442
     47 O7         -2.8900    1.7870   -2.9530 o         1 MOL     -0.771136
     48 O8         -0.8560    1.7420   -3.4910 o         1 MOL     -0.771136
     49 H21        -1.0890    3.5750   -1.1040 hn        1 MOL      0.095254
     50 H22        -2.0380    5.7990   -2.8540 h1        1 MOL      0.116523
     51 H23        -1.1210    4.2010   -4.3080 hc        1 MOL      0.051947
     52 H24        -2.7750    4.0730   -4.4090 hc        1 MOL      0.051947
     53 N5         -3.8480    4.0310   -0.8070 n         1 MOL     -0.200688
     54 C17        -5.1620    3.9730   -0.2030 c3        1 MOL     -0.056795
     55 C18        -6.0270    2.8650   -0.8770 c         1 MOL      0.416980
     56 O9         -7.2530    2.9940   -0.8450 o         1 MOL     -0.573873
     57 H25        -3.0550    3.6540   -0.3070 hn        1 MOL      0.156157
     58 H26        -5.6770    4.9210   -0.0480 h1        1 MOL      0.083544
     59 H27        -5.0350    3.5560    0.7990 h1        1 MOL      0.083544
     60 N6         -5.4750    1.7710   -1.2640 n         1 MOL     -0.019855
     61 C19        -6.2850    0.5600   -1.6580 c3        1 MOL     -0.138336
     62 C20        -6.8490   -0.3190   -0.4830 c         1 MOL      0.429527
     63 O10        -7.7700   -1.1320   -0.6980 o         1 MOL     -0.548034
     64 C21        -5.5990   -0.2270   -2.7540 c3        1 MOL     -0.248226
     65 C22        -4.4310   -1.0130   -2.3460 c         1 MOL      0.607575
     66 N7         -3.9960   -1.8550   -3.2320 n         1 MOL     -0.783206
     67 O11        -3.9580   -0.9350   -1.2080 o         1 MOL     -0.546635
     68 H28        -4.4820    1.7200   -1.4190 hn        1 MOL      0.087321
     69 H29        -7.1510    0.9340   -2.2140 h1        1 MOL      0.137413
     70 H30        -5.4520    0.4660   -3.5840 hc        1 MOL      0.121932
     71 H31        -6.3440   -0.9530   -3.0860 hc        1 MOL      0.121932
     72 H32        -4.4880   -1.9380   -4.1140 hn        1 MOL      0.356680
     73 H33        -3.1800   -2.4520   -3.1910 hn        1 MOL      0.356680
     74 N8         -6.2420   -0.1950    0.6820 n         1 MOL     -0.121338
     75 C23        -6.5640   -0.9670    1.9140 c3        1 MOL     -0.334001
     76 C24        -5.3960   -1.8850    2.3100 c         1 MOL      0.686449
     77 O12        -5.5950   -2.7200    3.1940 o         1 MOL     -0.562414
     78 H34        -5.4180    0.3910    0.7110 hn        1 MOL      0.203678
     79 H35        -7.3610   -1.6760    1.6720 h1        1 MOL      0.152000
     80 H36        -6.7680   -0.3380    2.7800 h1        1 MOL      0.152000
     81 N9         -4.2310   -1.7420    1.6290 n         1 MOL     -0.701113
     82 C25        -3.1190   -2.6700    1.7080 c3        1 MOL      0.278154
     83 C26        -1.6970   -2.0570    1.5050 c         1 MOL      0.693015
     84 O13        -1.5180   -0.9640    1.0200 o         1 MOL     -0.732427
     85 C27        -3.3460   -3.6970    0.5820 c3        1 MOL      0.045696
     86 C28        -4.7420   -4.2910    0.4730 ca        1 MOL     -0.236844
     87 C29        -5.0890   -5.3950    1.2570 ca        1 MOL      0.016314
     88 C30        -5.7280   -3.7450   -0.4720 ca        1 MOL      0.016314
     89 C31        -6.4220   -5.8800    1.1860 ca        1 MOL     -0.381418
     90 C32        -7.0210   -4.2500   -0.4670 ca        1 MOL     -0.381418
     91 C33        -7.4590   -5.2140    0.4820 ca        1 MOL      0.484497
     92 O14        -8.7380   -5.6420    0.6460 oh        1 MOL     -0.539465
     93 H37        -4.1320   -1.0550    0.8920 hn        1 MOL      0.492383
     94 H38        -3.0870   -3.1400    2.6830 h1        1 MOL      0.010614
     95 H39        -2.6430   -4.5020    0.7850 hc        1 MOL     -0.000061
     96 H40        -2.9980   -3.2790   -0.3680 hc        1 MOL     -0.000061
     97 H41        -4.2760   -5.8360    1.8080 ha        1 MOL      0.105920
     98 H42        -5.4360   -3.0280   -1.2140 ha        1 MOL      0.105920
     99 H43        -6.6500   -6.7560    1.7740 ha        1 MOL      0.164169
    100 H44        -7.7620   -3.8290   -1.1200 ha        1 MOL      0.164169
    101 H45        -9.3440   -5.0230    0.2190 ho        1 MOL      0.395760
    102 N10        -0.7110   -2.8240    1.9890 n         1 MOL     -0.701532
    103 C34         0.7570   -2.4770    1.9370 c3        1 MOL      0.157486
    104 C35         1.5220   -3.4780    1.1360 c         1 MOL      0.391022
    105 O15         1.3310   -4.6660    1.3680 o         1 MOL     -0.525437
    106 C36         1.3550   -2.3390    3.2850 c3        1 MOL      0.211938
    107 C37         0.4800   -1.7570    4.3900 c3        1 MOL      0.250930
    108 C38         2.7040   -1.5970    3.2370 c3        1 MOL     -0.480396
    109 C39         0.7130   -1.9430    5.8690 c3        1 MOL     -0.358074
    110 H46        -0.9390   -3.7180    2.4030 hn        1 MOL      0.330042
    111 H47         0.8730   -1.5480    1.3800 h1        1 MOL      0.070310
    112 H48         1.5620   -3.3540    3.6280 hc        1 MOL     -0.030937
    113 H49        -0.5870   -1.9830    4.3110 hc        1 MOL     -0.044293
    114 H50         0.5270   -0.6880    4.2210 hc        1 MOL     -0.044293
    115 H51         3.1050   -1.4100    4.2380 hc        1 MOL      0.095409
    116 H52         3.3450   -2.2260    2.6240 hc        1 MOL      0.095409
    117 H53         2.5750   -0.6210    2.7800 hc        1 MOL      0.095409
    118 H54         0.0360   -1.2910    6.4200 hc        1 MOL      0.082269
    119 H55         0.4180   -2.9550    6.1290 hc        1 MOL      0.082269
    120 H56         1.7220   -1.6240    6.1200 hc        1 MOL      0.082269
    121 N11         2.4360   -2.9880    0.2770 n         1 MOL     -0.092856
    122 C40         3.2550   -3.8210   -0.6050 c3        1 MOL     -0.062127
    123 C41         4.7680   -3.6800   -0.3480 c         1 MOL      0.464182
    124 O16         5.1820   -2.7820    0.3900 o         1 MOL     -0.415078
    125 C42         2.9710   -3.5570   -2.0580 c3        1 MOL     -0.099791
    126 O17         3.6930   -2.4370   -2.4520 oh        1 MOL     -0.556259
    127 H57         2.5030   -1.9930    0.1250 hn        1 MOL      0.268691
    128 H58         3.0480   -4.8600   -0.3670 h1        1 MOL      0.059465
    129 H59         1.9070   -3.5880   -2.2910 h1        1 MOL      0.092783
    130 H60         3.2900   -4.3910   -2.6900 h1        1 MOL      0.092783
    131 H61         3.0570   -1.8820   -2.9110 ho        1 MOL      0.422036
    132 N12         5.5810   -4.5300   -1.0260 n         1 MOL     -0.402113
    133 C43         7.0690   -4.4230   -1.0010 c3        1 MOL      0.059737
    134 C44         7.6610   -3.0420   -1.5400 c         1 MOL      0.471439
    135 O18         8.4910   -2.4350   -0.8220 o         1 MOL     -0.506287
    136 C45         7.7290   -5.7150   -1.5970 c3        1 MOL     -0.310128
    137 H62         5.2220   -5.3000   -1.5570 hn        1 MOL      0.294399
    138 H63         7.3900   -4.5450    0.0320 h1        1 MOL      0.102950
    139 H64         7.2940   -5.9260   -2.5780 hc        1 MOL      0.098261
    140 H65         8.8190   -5.6830   -1.6640 hc        1 MOL      0.098261
    141 H66         7.4510   -6.5710   -0.9860 hc        1 MOL      0.098261
    142 N13         7.0340   -2.5340   -2.5980 n         1 MOL     -0.417630
    143 C46         7.3150   -1.1800   -3.1260 c3        1 MOL      0.149724
    144 C47         6.9760   -0.1200   -2.0880 c         1 MOL      0.364143
    145 O19         7.6870    0.8820   -1.9710 o         1 MOL     -0.521876
    146 C48         6.7040   -1.0690   -4.4740 c3        1 MOL     -0.252649
    147 H67         6.3430   -3.1100   -3.0660 hn        1 MOL      0.291796
    148 H68         8.3990   -1.0520   -3.1880 h1        1 MOL      0.081547
    149 H69         6.9530   -1.9630   -5.0340 hc        1 MOL      0.075380
    150 H70         5.6130   -1.0390   -4.4320 hc        1 MOL      0.075380
    151 H71         7.0050   -0.1500   -4.9910 hc        1 MOL      0.075380
    152 N14         5.9340   -0.3350   -1.2890 n         1 MOL      0.148016
    153 C49         5.4890    0.5990   -0.3060 c3        1 MOL     -0.415805
    154 C50         6.3360    0.5650    0.9940 c         1 MOL      0.564242
    155 O20         6.4440    1.5880    1.7210 o         1 MOL     -0.591906
    156 C51         3.9680    0.3870    0.0280 c3        1 MOL     -0.007916
    157 C52         3.1450    0.6310   -1.2660 c3        1 MOL     -0.099143
    158 C53         1.6580    0.3650   -1.1280 c         1 MOL      0.629756
    159 O21         0.9020    1.3460   -0.9160 o         1 MOL     -0.698030
    160 O22         1.2040   -0.7820   -1.3450 o         1 MOL     -0.698030
    161 H72         5.4600   -1.1990   -1.5170 hn        1 MOL     -0.006952
    162 H73         5.5850    1.6070   -0.7110 h1        1 MOL      0.142439
    163 H74         3.7280    1.1460    0.7670 hc        1 MOL      0.063493
    164 H75         3.8360   -0.6510    0.3510 hc        1 MOL      0.063493
    165 H76         3.6020   -0.0060   -2.0120 hc        1 MOL      0.037751
    166 H77         3.3630    1.6030   -1.7070 hc        1 MOL      0.037751
    167 N15         6.7130   -0.6650    1.3610 n         1 MOL     -0.118146
    168 C54         7.6240   -0.8250    2.5000 c3        1 MOL     -0.364807
    169 H78         8.6530   -0.6960    2.1640 h1        1 MOL      0.134893
    170 H79         7.3950   -0.0770    3.2590 h1        1 MOL      0.134893
    171 H80         7.5040   -1.8230    2.9250 h1        1 MOL      0.134893
    172 H81         6.5180   -1.3950    0.6950 hn        1 MOL      0.167649
    173 Ca1        -1.3170    0.1070   -1.4800 Ca        1 MOL      1.761981
    174 O23        -0.9950   -1.4140   -3.9100 oh        1 MOL     -0.878674
    175 H82        -0.6830   -0.8750   -4.6380 ho        1 MOL      0.423334
    176 H83        -1.5760   -2.0570   -4.3100 ho        1 MOL      0.423334
    177 O24        -0.7900   -2.5210   -1.3640 oh        1 MOL     -0.878674
    178 H84         0.0900   -2.2180   -1.6040 ho        1 MOL      0.423334
    179 H85        -0.9000   -3.3370   -1.8340 ho        1 MOL      0.423334
@<TRIPOS>BOND
     1    1    2 1   
     2    1    4 1   
     3    1    5 1   
     4    1    6 1   
     5    2    3 2   
     6    2    7 1   
     7    7    8 1   
     8    7   15 1   
     9    8    9 1   
    10    8   11 1   
    11    8   16 1   
    12    9   10 2   
    13    9   19 1   
    14   11   12 1   
    15   11   17 1   
    16   11   18 1   
    17   12   13 1   
    18   12   14 1   
    19   19   20 1   
    20   19   28 1   
    21   20   21 1   
    22   20   23 1   
    23   20   29 1   
    24   21   22 2   
    25   21   41 1   
    26   23   24 1   
    27   23   30 1   
    28   23   31 1   
    29   24   25 1   
    30   24   32 1   
    31   24   33 1   
    32   25   26 1   
    33   25   34 1   
    34   25   35 1   
    35   26   27 1   
    36   26   36 1   
    37   26   37 1   
    38   27   38 1   
    39   27   39 1   
    40   27   40 1   
    41   41   42 1   
    42   41   49 1   
    43   42   43 1   
    44   42   45 1   
    45   42   50 1   
    46   43   44 2   
    47   43   53 1   
    48   45   46 1   
    49   45   51 1   
    50   45   52 1   
    51   46   47 1   
    52   46   48 1   
    53   53   54 1   
    54   53   57 1   
    55   54   55 1   
    56   54   58 1   
    57   54   59 1   
    58   55   56 2   
    59   55   60 1   
    60   60   61 1   
    61   60   68 1   
    62   61   62 1   
    63   61   64 1   
    64   61   69 1   
    65   62   63 2   
    66   62   74 1   
    67   64   65 1   
    68   64   70 1   
    69   64   71 1   
    70   65   66 1   
    71   65   67 2   
    72   66   72 1   
    73   66   73 1   
    74   74   75 1   
    75   74   78 1   
    76   75   76 1   
    77   75   79 1   
    78   75   80 1   
    79   76   77 2   
    80   76   81 1   
    81   81   82 1   
    82   81   93 1   
    83   82   83 1   
    84   82   85 1   
    85   82   94 1   
    86   83   84 2   
    87   83  102 1   
    88   85   86 1   
    89   85   95 1   
    90   85   96 1   
    91   86   87 ar  
    92   86   88 ar  
    93   87   89 ar  
    94   87   97 1   
    95   88   90 ar  
    96   88   98 1   
    97   89   91 ar  
    98   89   99 1   
    99   90   91 ar  
   100   90  100 1   
   101   91   92 1   
   102   92  101 1   
   103  102  103 1   
   104  102  110 1   
   105  103  104 1   
   106  103  106 1   
   107  103  111 1   
   108  104  105 2   
   109  104  121 1   
   110  106  107 1   
   111  106  108 1   
   112  106  112 1   
   113  107  109 1   
   114  107  113 1   
   115  107  114 1   
   116  108  115 1   
   117  108  116 1   
   118  108  117 1   
   119  109  118 1   
   120  109  119 1   
   121  109  120 1   
   122  121  122 1   
   123  121  127 1   
   124  122  123 1   
   125  122  125 1   
   126  122  128 1   
   127  123  124 2   
   128  123  132 1   
   129  125  126 1   
   130  125  129 1   
   131  125  130 1   
   132  126  131 1   
   133  132  133 1   
   134  132  137 1   
   135  133  134 1   
   136  133  136 1   
   137  133  138 1   
   138  134  135 2   
   139  134  142 1   
   140  136  139 1   
   141  136  140 1   
   142  136  141 1   
   143  142  143 1   
   144  142  147 1   
   145  143  144 1   
   146  143  146 1   
   147  143  148 1   
   148  144  145 2   
   149  144  152 1   
   150  146  149 1   
   151  146  150 1   
   152  146  151 1   
   153  152  153 1   
   154  152  161 1   
   155  153  154 1   
   156  153  156 1   
   157  153  162 1   
   158  154  155 2   
   159  154  167 1   
   160  156  157 1   
   161  156  163 1   
   162  156  164 1   
   163  157  158 1   
   164  157  165 1   
   165  157  166 1   
   166  158  159 1   
   167  158  160 1   
   168  167  168 1   
   169  167  172 1   
   170  168  169 1   
   171  168  170 1   
   172  168  171 1   
   173  174  175 1   
   174  174  176 1   
   175  177  178 1   
   176  177  179 1   
@<TRIPOS>SUBSTRUCTURE
     1 MOL         1 TEMP              0 ****  ****    0 ROOT
