@<TRIPOS>MOLECULE
MOL
  189   185     1     0     0
SMALL
resp


@<TRIPOS>ATOM
      1 C1          0.1730    3.6290   -4.4290 c3        1 MOL     -0.248023
      2 C2          0.8940    3.2230   -3.1190 c         1 MOL      0.667421
      3 O1          0.2450    3.2360   -2.0980 o         1 MOL     -0.525931
      4 H1         -0.7620    4.1340   -4.1880 hc        1 MOL      0.064591
      5 H2          0.8110    4.3010   -5.0020 hc        1 MOL      0.064591
      6 H3         -0.0380    2.7370   -5.0200 hc        1 MOL      0.064591
      7 N1          2.2440    2.8580   -3.0830 n         1 MOL     -0.836515
      8 C3          2.9160    2.1310   -2.0060 c3        1 MOL      0.613977
      9 C4          3.7680    3.0740   -1.1960 c         1 MOL      0.326924
     10 O2          4.9730    3.0790   -1.1320 o         1 MOL     -0.435916
     11 C5          3.6620    0.8820   -2.5540 c3        1 MOL     -0.250989
     12 C6          4.2670   -0.0280   -1.4420 c         1 MOL      0.556183
     13 O3          3.7620   -0.0500   -0.3010 o         1 MOL     -0.588923
     14 O4          5.3540   -0.6760   -1.6780 o         1 MOL     -0.588923
     15 H4          2.6630    2.8680   -4.0000 hn        1 MOL      0.345807
     16 H5          2.1200    1.7210   -1.3770 h1        1 MOL     -0.033488
     17 H6          4.4820    1.2740   -3.1580 hc        1 MOL      0.045888
     18 H7          2.9870    0.2710   -3.1530 hc        1 MOL      0.045888
     19 N2          2.9810    3.8960   -0.4610 n         1 MOL     -0.371727
     20 C7          3.5050    5.0940    0.2010 c3        1 MOL      0.100382
     21 C8          4.3210    4.7170    1.4670 c         1 MOL      0.426594
     22 O5          5.0850    5.5090    1.9470 o         1 MOL     -0.548335
     23 C9          2.3530    6.1410    0.4630 c3        1 MOL     -0.281508
     24 C10         1.7930    6.5650   -0.9440 c3        1 MOL      0.162749
     25 C11         0.9700    7.8760   -0.6300 c3        1 MOL      0.030476
     26 C12         0.5450    8.4020   -2.0060 c3        1 MOL     -0.006274
     27 N3         -0.8620    7.9630   -2.3230 n4        1 MOL     -0.504640
     28 H8          1.9910    3.8690   -0.6690 hn        1 MOL      0.294191
     29 H9          4.3110    5.4750   -0.4350 h1        1 MOL      0.066694
     30 H10         2.7150    7.0490    0.9450 hc        1 MOL      0.088069
     31 H11         1.5520    5.6080    0.9670 hc        1 MOL      0.088069
     32 H12         1.0940    5.8670   -1.3960 hc        1 MOL     -0.029029
     33 H13         2.6310    6.6790   -1.6320 hc        1 MOL     -0.029029
     34 H14         1.5060    8.6770   -0.1120 hc        1 MOL      0.036424
     35 H15         0.0810    7.6830   -0.0300 hc        1 MOL      0.036424
     36 H16         1.2380    7.9470   -2.7080 hx        1 MOL      0.090564
     37 H17         0.6540    9.4860   -1.9800 hx        1 MOL      0.090564
     38 H18        -0.8280    7.3630   -3.1450 hn        1 MOL      0.367803
     39 H19        -1.3090    7.4920   -1.5420 hn        1 MOL      0.367803
     40 H20        -1.5000    8.7360   -2.4800 hn        1 MOL      0.367803
     41 N4          3.9810    3.6280    2.1510 n         1 MOL     -0.224442
     42 C13         4.7160    3.1520    3.3280 c3        1 MOL     -0.002667
     43 C14         5.9080    2.2630    2.9670 c         1 MOL      0.497871
     44 O6          6.8100    2.1920    3.8230 o         1 MOL     -0.557206
     45 C15         3.7590    2.4680    4.3300 c3        1 MOL     -0.063908
     46 C16         2.7760    1.4200    3.7880 c         1 MOL      0.581798
     47 O7          2.8150    1.1210    2.5550 o         1 MOL     -0.651113
     48 O8          2.1300    0.7710    4.6910 o         1 MOL     -0.651113
     49 H21         3.1110    3.2020    1.8700 hn        1 MOL      0.207386
     50 H22         5.1710    3.9330    3.9330 h1        1 MOL      0.080860
     51 H23         3.2070    3.2550    4.8420 hc        1 MOL      0.031416
     52 H24         4.3250    2.0520    5.1670 hc        1 MOL      0.031416
     53 N5          6.0040    1.7400    1.7110 n         1 MOL     -0.020413
     54 C17         7.0990    0.9860    1.1150 c3        1 MOL     -0.143906
     55 C18         7.3080   -0.4640    1.6040 c         1 MOL      0.549152
     56 O9          8.2000   -0.7730    2.3800 o         1 MOL     -0.545802
     57 H25         5.1340    1.9240    1.2230 hn        1 MOL     -0.041625
     58 H26         8.0560    1.4820    1.2700 h1        1 MOL      0.073946
     59 H27         6.9470    1.0780    0.0350 h1        1 MOL      0.073946
     60 N6          6.4140   -1.3700    1.2230 n         1 MOL     -0.266192
     61 C19         6.4750   -2.8000    1.6510 c3        1 MOL      0.086678
     62 C20         6.6180   -3.7580    0.4760 c         1 MOL      0.302116
     63 O10         7.0780   -4.8670    0.6810 o         1 MOL     -0.501503
     64 C21         5.3730   -3.1750    2.5920 c3        1 MOL     -0.119974
     65 C22         4.0140   -2.7310    2.0380 c         1 MOL      0.597583
     66 O11         3.3680   -2.0220    2.7900 o         1 MOL     -0.639126
     67 O12         3.6780   -2.9100    0.8670 o         1 MOL     -0.639126
     68 H28         5.7690   -0.9470    0.5730 hn        1 MOL      0.105981
     69 H29         7.3860   -2.9890    2.2370 h1        1 MOL      0.086308
     70 H30         5.6340   -2.7120    3.5430 hc        1 MOL      0.059032
     71 H31         5.3790   -4.2260    2.8730 hc        1 MOL      0.059032
     72 N7          6.2400   -3.3030   -0.7460 n         1 MOL     -0.106834
     73 C23         6.0180   -4.0530   -1.9610 c3        1 MOL     -0.145415
     74 C24         4.7020   -4.6650   -2.2610 c         1 MOL      0.651500
     75 O13         4.7270   -5.6300   -3.0600 o         1 MOL     -0.603901
     76 H32         6.0580   -2.3030   -0.8020 hn        1 MOL      0.141552
     77 H33         6.6470   -4.9420   -1.9580 h1        1 MOL      0.070562
     78 H34         6.2900   -3.3800   -2.7850 h1        1 MOL      0.070562
     79 N8          3.6580   -4.1250   -1.6420 n         1 MOL     -0.470012
     80 C25         2.2510   -4.4820   -1.8760 c3        1 MOL     -0.055114
     81 C26         1.2960   -3.3050   -1.8320 c         1 MOL      0.609318
     82 O14         1.5900   -2.2560   -1.2440 o         1 MOL     -0.626386
     83 C27         1.7560   -5.5040   -0.8670 c3        1 MOL      0.559317
     84 C28         2.1390   -6.8940   -1.4210 c3        1 MOL     -0.597855
     85 O15         2.4040   -5.2760    0.3950 oh        1 MOL     -0.654530
     86 H35         3.9020   -3.4420   -0.9450 hn        1 MOL      0.347422
     87 H36         2.1480   -4.9560   -2.8480 h1        1 MOL      0.072247
     88 H37         0.6760   -5.4830   -0.7200 h1        1 MOL     -0.041173
     89 H38         3.0000   -4.5270    0.2910 ho        1 MOL      0.411238
     90 H39         1.4770   -7.0470   -2.2790 hc        1 MOL      0.145022
     91 H40         3.1590   -7.1290   -1.7310 hc        1 MOL      0.145022
     92 H41         1.8960   -7.5670   -0.6000 hc        1 MOL      0.145022
     93 N9          0.1190   -3.4010   -2.4410 n         1 MOL     -0.542418
     94 C29        -0.8940   -2.3500   -2.4630 c3        1 MOL     -0.032698
     95 C30        -2.1750   -2.9580   -1.9240 c         1 MOL      0.422864
     96 O16        -2.4330   -4.1190   -2.1920 o         1 MOL     -0.560277
     97 C31        -1.1050   -1.7210   -3.9090 c3        1 MOL      0.226447
     98 C32         0.2680   -1.3680   -4.5960 c3        1 MOL      0.026320
     99 C33        -2.1400   -0.5720   -3.8620 c3        1 MOL     -0.348808
    100 C34         0.0330   -0.9280   -6.0660 c3        1 MOL     -0.290043
    101 H42        -0.1540   -4.1810   -3.0350 hn        1 MOL      0.288093
    102 H43        -0.5540   -1.5460   -1.8080 h1        1 MOL      0.121180
    103 H44        -1.6190   -2.4850   -4.4930 hc        1 MOL     -0.010801
    104 H45         0.8840   -2.2680   -4.6250 hc        1 MOL      0.033682
    105 H46         0.8210   -0.6350   -4.0140 hc        1 MOL      0.033682
    106 H47        -1.8870    0.1420   -3.0860 hc        1 MOL      0.062255
    107 H48        -2.2180   -0.0890   -4.8310 hc        1 MOL      0.062255
    108 H49        -3.1430   -0.9460   -3.6380 hc        1 MOL      0.062255
    109 H50         0.9880   -0.6580   -6.5300 hc        1 MOL      0.071966
    110 H51        -0.5440   -1.6840   -6.5890 hc        1 MOL      0.071966
    111 H52        -0.5990   -0.0430   -6.1740 hc        1 MOL      0.071966
    112 N10        -2.7940   -2.2530   -1.0310 n         1 MOL     -0.170394
    113 C35        -4.0600   -2.7190   -0.2810 c3        1 MOL      0.028067
    114 C36        -5.2090   -1.9250   -0.8630 c         1 MOL      0.321522
    115 O17        -5.0670   -0.8760   -1.5250 o         1 MOL     -0.327270
    116 C37        -3.9320   -2.4210    1.1820 c3        1 MOL      0.270955
    117 C38        -2.8210   -3.1690    1.8730 c3        1 MOL     -0.542139
    118 O18        -3.7970   -1.0640    1.5130 oh        1 MOL     -0.599230
    119 H53        -2.3970   -1.3740   -0.7680 hn        1 MOL      0.292180
    120 H54        -4.2220   -3.7940   -0.4130 h1        1 MOL      0.086142
    121 H55        -4.7890   -2.8370    1.7220 h1        1 MOL      0.020815
    122 H56        -2.8560   -0.8880    1.5460 ho        1 MOL      0.438567
    123 H57        -2.9890   -4.2300    1.6830 hc        1 MOL      0.153057
    124 H58        -1.8580   -2.8660    1.4790 hc        1 MOL      0.153057
    125 H59        -2.7920   -2.8430    2.9080 hc        1 MOL      0.153057
    126 N11        -6.4160   -2.3600   -0.5690 n         1 MOL     -0.390278
    127 C39        -7.7090   -1.5540   -0.5610 c3        1 MOL     -0.007058
    128 C40        -7.5880   -0.1060   -0.1000 c         1 MOL      0.306977
    129 O19        -8.2270    0.8110   -0.5420 o         1 MOL     -0.510963
    130 C41        -8.7980   -2.3000    0.2540 c3        1 MOL      0.229253
    131 C42        -9.2030   -3.6030   -0.4180 c3        1 MOL     -0.536666
    132 O20        -8.3570   -2.6070    1.5790 oh        1 MOL     -0.551041
    133 H60        -6.4110   -3.2250   -0.0430 hn        1 MOL      0.272487
    134 H61        -8.0950   -1.5250   -1.5690 h1        1 MOL      0.132048
    135 H62        -9.6390   -1.6020    0.2570 h1        1 MOL      0.041375
    136 H63        -9.1520   -2.6530    2.1140 ho        1 MOL      0.350823
    137 H64        -9.8540   -4.1640    0.2590 hc        1 MOL      0.161507
    138 H65        -9.6130   -3.3160   -1.3780 hc        1 MOL      0.161507
    139 H66        -8.3180   -4.2240   -0.5720 hc        1 MOL      0.161507
    140 N12        -6.7200    0.0600    0.8830 n         1 MOL      0.108830
    141 C43        -6.4960    1.2960    1.5580 c3        1 MOL     -0.141165
    142 C44        -5.5320    2.2830    0.8710 c         1 MOL      0.291426
    143 O21        -5.5220    3.4870    1.1670 o         1 MOL     -0.515431
    144 C45        -5.9320    1.1140    2.9850 c3        1 MOL     -0.295493
    145 C46        -6.5750   -0.1140    3.8540 c3        1 MOL     -0.098577
    146 C47        -8.1100    0.0270    4.1560 c3        1 MOL     -0.054145
    147 C48        -8.5200   -1.1280    5.0280 c3        1 MOL     -0.014916
    148 N13        -9.9490   -0.8880    5.2910 n4        1 MOL     -0.261818
    149 H67        -6.0820   -0.6930    1.0450 hn        1 MOL      0.117447
    150 H68        -7.4200    1.8570    1.4620 h1        1 MOL      0.126471
    151 H69        -6.1710    1.9920    3.5890 hc        1 MOL      0.140273
    152 H70        -4.8530    0.9890    2.9250 hc        1 MOL      0.140273
    153 H71        -6.0910   -0.1110    4.8390 hc        1 MOL      0.063009
    154 H72        -6.4510   -1.0550    3.3090 hc        1 MOL      0.063009
    155 H73        -8.6770    0.1950    3.2350 hc        1 MOL      0.052254
    156 H74        -8.2300    0.9470    4.7370 hc        1 MOL      0.052254
    157 H75        -7.9600   -1.0640    5.9680 hx        1 MOL      0.100880
    158 H76        -8.3080   -2.0880    4.5510 hx        1 MOL      0.100880
    159 H77       -10.2180   -1.3690    6.1330 hn        1 MOL      0.268089
    160 H78       -10.1580    0.0930    5.4410 hn        1 MOL      0.268089
    161 H79       -10.4550   -1.2020    4.4790 hn        1 MOL      0.268089
    162 N14        -4.7620    1.7740   -0.1240 n         1 MOL      0.302525
    163 C49        -3.9020    2.5740   -0.9190 c3        1 MOL     -0.272248
    164 C50        -4.5870    2.9780   -2.1820 c         1 MOL      0.570368
    165 O22        -4.5440    4.1040   -2.5640 o         1 MOL     -0.562469
    166 C51        -2.5960    1.7740   -1.0730 c3        1 MOL      0.123993
    167 C52        -1.7660    1.7660    0.2020 c3        1 MOL     -0.295606
    168 C53        -0.6390    0.7990    0.1610 c         1 MOL      1.030168
    169 O23         0.5290    1.2330    0.4100 o         1 MOL     -0.896547
    170 O24        -0.7990   -0.4080    0.1400 o         1 MOL     -0.896547
    171 H80        -4.8910    0.8080   -0.4080 hn        1 MOL     -0.119286
    172 H81        -3.7260    3.5620   -0.4790 h1        1 MOL      0.101220
    173 H82        -2.0130    2.1780   -1.8970 hc        1 MOL     -0.003975
    174 H83        -2.8430    0.7460   -1.3390 hc        1 MOL     -0.003975
    175 H84        -2.3540    1.4340    1.0660 hc        1 MOL      0.039639
    176 H85        -1.3350    2.7520    0.3230 hc        1 MOL      0.039639
    177 N15        -5.3240    2.0280   -2.7780 n         1 MOL     -0.300097
    178 C54        -6.4320    2.3040   -3.7670 c3        1 MOL     -0.306855
    179 H86        -7.2870    2.7330   -3.2440 h1        1 MOL      0.131974
    180 H87        -6.0790    3.0070   -4.5220 h1        1 MOL      0.131974
    181 H88        -6.7310    1.3730   -4.2480 h1        1 MOL      0.131974
    182 H89        -5.1660    1.1020   -2.3990 hn        1 MOL      0.218605
    183 Ca1         1.8270   -0.8070    1.1240 Ca        1 MOL      1.771445
    184 O25         0.3180   -0.7370    3.3460 oh        1 MOL     -0.818719
    185 H90        -0.5920   -0.6920    3.6580 ho        1 MOL      0.374213
    186 H91         0.8190   -0.2720    4.0110 ho        1 MOL      0.374213
    187 O26         0.8280   -3.3330    1.5770 oh        1 MOL     -0.818719
    188 H92         1.1340   -4.1580    1.2080 ho        1 MOL      0.374213
    189 H93         0.2100   -3.5880    2.2670 ho        1 MOL      0.374213
@<TRIPOS>BOND
     1    1    2 1   
     2    1    4 1   
     3    1    5 1   
     4    1    6 1   
     5    2    3 2   
     6    2    7 1   
     7    7    8 1   
     8    7   15 1   
     9    8    9 1   
    10    8   11 1   
    11    8   16 1   
    12    9   10 2   
    13    9   19 1   
    14   11   12 1   
    15   11   17 1   
    16   11   18 1   
    17   12   13 1   
    18   12   14 1   
    19   19   20 1   
    20   19   28 1   
    21   20   21 1   
    22   20   23 1   
    23   20   29 1   
    24   21   22 2   
    25   21   41 1   
    26   23   24 1   
    27   23   30 1   
    28   23   31 1   
    29   24   25 1   
    30   24   32 1   
    31   24   33 1   
    32   25   26 1   
    33   25   34 1   
    34   25   35 1   
    35   26   27 1   
    36   26   36 1   
    37   26   37 1   
    38   27   38 1   
    39   27   39 1   
    40   27   40 1   
    41   41   42 1   
    42   41   49 1   
    43   42   43 1   
    44   42   45 1   
    45   42   50 1   
    46   43   44 2   
    47   43   53 1   
    48   45   46 1   
    49   45   51 1   
    50   45   52 1   
    51   46   47 1   
    52   46   48 1   
    53   53   54 1   
    54   53   57 1   
    55   54   55 1   
    56   54   58 1   
    57   54   59 1   
    58   55   56 2   
    59   55   60 1   
    60   60   61 1   
    61   60   68 1   
    62   61   62 1   
    63   61   64 1   
    64   61   69 1   
    65   62   63 2   
    66   62   72 1   
    67   64   65 1   
    68   64   70 1   
    69   64   71 1   
    70   65   66 1   
    71   65   67 1   
    72   72   73 1   
    73   72   76 1   
    74   73   74 1   
    75   73   77 1   
    76   73   78 1   
    77   74   75 2   
    78   74   79 1   
    79   79   80 1   
    80   79   86 1   
    81   80   81 1   
    82   80   83 1   
    83   80   87 1   
    84   81   82 2   
    85   81   93 1   
    86   83   84 1   
    87   83   85 1   
    88   83   88 1   
    89   84   90 1   
    90   84   91 1   
    91   84   92 1   
    92   85   89 1   
    93   93   94 1   
    94   93  101 1   
    95   94   95 1   
    96   94   97 1   
    97   94  102 1   
    98   95   96 2   
    99   95  112 1   
   100   97   98 1   
   101   97   99 1   
   102   97  103 1   
   103   98  100 1   
   104   98  104 1   
   105   98  105 1   
   106   99  106 1   
   107   99  107 1   
   108   99  108 1   
   109  100  109 1   
   110  100  110 1   
   111  100  111 1   
   112  112  113 1   
   113  112  119 1   
   114  113  114 1   
   115  113  116 1   
   116  113  120 1   
   117  114  115 2   
   118  114  126 1   
   119  116  117 1   
   120  116  118 1   
   121  116  121 1   
   122  117  123 1   
   123  117  124 1   
   124  117  125 1   
   125  118  122 1   
   126  126  127 1   
   127  126  133 1   
   128  127  128 1   
   129  127  130 1   
   130  127  134 1   
   131  128  129 2   
   132  128  140 1   
   133  130  131 1   
   134  130  132 1   
   135  130  135 1   
   136  131  137 1   
   137  131  138 1   
   138  131  139 1   
   139  132  136 1   
   140  140  141 1   
   141  140  149 1   
   142  141  142 1   
   143  141  144 1   
   144  141  150 1   
   145  142  143 2   
   146  142  162 1   
   147  144  145 1   
   148  144  151 1   
   149  144  152 1   
   150  145  146 1   
   151  145  153 1   
   152  145  154 1   
   153  146  147 1   
   154  146  155 1   
   155  146  156 1   
   156  147  148 1   
   157  147  157 1   
   158  147  158 1   
   159  148  159 1   
   160  148  160 1   
   161  148  161 1   
   162  162  163 1   
   163  162  171 1   
   164  163  164 1   
   165  163  166 1   
   166  163  172 1   
   167  164  165 2   
   168  164  177 1   
   169  166  167 1   
   170  166  173 1   
   171  166  174 1   
   172  167  168 1   
   173  167  175 1   
   174  167  176 1   
   175  168  169 1   
   176  168  170 1   
   177  177  178 1   
   178  177  182 1   
   179  178  179 1   
   180  178  180 1   
   181  178  181 1   
   182  184  185 1   
   183  184  186 1   
   184  187  188 1   
   185  187  189 1   
@<TRIPOS>SUBSTRUCTURE
     1 MOL         1 TEMP              0 ****  ****    0 ROOT
