@<TRIPOS>MOLECULE
MOL
  179   176     1     0     0
SMALL
resp


@<TRIPOS>ATOM
      1 C1          1.9260    3.6650    5.0640 c3        1 MOL     -0.199379
      2 C2          1.4320    2.9610    3.8030 c         1 MOL      0.685967
      3 O1          2.2220    2.6450    2.9460 o         1 MOL     -0.580178
      4 H1          1.3500    4.5780    5.2190 hc        1 MOL      0.042898
      5 H2          1.7980    3.0060    5.9230 hc        1 MOL      0.042898
      6 H3          2.9800    3.9160    4.9520 hc        1 MOL      0.042898
      7 N1          0.1210    2.7050    3.7140 n         1 MOL     -0.520875
      8 C3         -0.5430    2.4060    2.3780 c3        1 MOL      0.053632
      9 C4         -0.6280    3.7540    1.6020 c         1 MOL      0.537826
     10 O2         -1.3000    4.6660    2.0940 o         1 MOL     -0.601696
     11 C5         -1.9480    1.7860    2.5860 c3        1 MOL      0.015173
     12 C6         -2.7330    1.5000    1.2950 c         1 MOL      0.442173
     13 O3         -2.2850    1.7560    0.1530 o         1 MOL     -0.544108
     14 O4         -3.9290    1.1890    1.3880 o         1 MOL     -0.544108
     15 H4         -0.4800    2.9850    4.4770 hn        1 MOL      0.296939
     16 H5          0.0650    1.7770    1.7180 h1        1 MOL     -0.130866
     17 H6         -2.5790    2.4030    3.2360 hc        1 MOL      0.024565
     18 H7         -1.8140    0.8920    3.1960 hc        1 MOL      0.024565
     19 N2          0.0730    3.9090    0.4780 n         1 MOL     -0.089805
     20 C7          0.1980    5.1610   -0.1460 c3        1 MOL     -0.018796
     21 C8         -0.9750    5.4420   -1.1280 c         1 MOL      0.343769
     22 O5         -1.0850    6.5910   -1.5790 o         1 MOL     -0.560501
     23 C9          1.5400    5.3760   -0.8360 c3        1 MOL     -0.018338
     24 C10         2.7070    5.1100    0.1420 c3        1 MOL     -0.145799
     25 C11         2.7470    5.8240    1.5460 c3        1 MOL     -0.338882
     26 C12         2.8510    7.3340    1.3040 c3        1 MOL      0.321450
     27 N3          3.1560    8.1070    2.5390 n4        1 MOL     -0.570311
     28 H8          0.6670    3.1660    0.1540 hn        1 MOL      0.292243
     29 H9          0.1200    5.9580    0.5900 h1        1 MOL      0.042626
     30 H10         1.6900    6.3620   -1.2660 hc        1 MOL      0.058835
     31 H11         1.7050    4.7190   -1.6910 hc        1 MOL      0.058835
     32 H12         3.6130    5.4580   -0.3620 hc        1 MOL      0.079615
     33 H13         2.7480    4.0340    0.3010 hc        1 MOL      0.079615
     34 H14         3.6960    5.4900    1.9780 hc        1 MOL      0.124593
     35 H15         1.8800    5.5200    2.1230 hc        1 MOL      0.124593
     36 H16         2.0680    7.7830    0.6830 hx        1 MOL      0.028297
     37 H17         3.7660    7.4930    0.7370 hx        1 MOL      0.028297
     38 H18         2.4470    7.9630    3.2470 hn        1 MOL      0.369318
     39 H19         4.0950    7.9400    2.8640 hn        1 MOL      0.369318
     40 H20         3.0850    9.0950    2.3400 hn        1 MOL      0.369318
     41 N4         -1.7910    4.5040   -1.5690 n         1 MOL     -0.051712
     42 C13        -2.9750    4.7450   -2.5170 c3        1 MOL     -0.124408
     43 C14        -4.3310    4.2320   -2.0190 c         1 MOL      0.552568
     44 O6         -5.3160    4.1580   -2.7500 o         1 MOL     -0.478924
     45 C15        -2.4560    4.2260   -3.8850 c3        1 MOL     -0.128009
     46 C16        -1.9420    2.8280   -3.9030 c         1 MOL      0.745655
     47 O7         -1.1260    2.4930   -4.7770 o         1 MOL     -0.715736
     48 O8         -2.2970    1.9840   -2.9970 o         1 MOL     -0.715736
     49 H21        -1.8040    3.6300   -1.0610 hn        1 MOL     -0.072229
     50 H22        -3.1740    5.8180   -2.5430 h1        1 MOL      0.136056
     51 H23        -1.7420    4.9540   -4.2630 hc        1 MOL      0.051504
     52 H24        -3.3630    4.2390   -4.4900 hc        1 MOL      0.051504
     53 N5         -4.4260    4.0140   -0.6450 n         1 MOL     -0.521967
     54 C17        -5.7180    3.7850   -0.0340 c3        1 MOL     -0.058728
     55 C18        -6.4650    2.4890   -0.4240 c         1 MOL      0.488625
     56 O9         -7.6600    2.5140   -0.4960 o         1 MOL     -0.560055
     57 H25        -3.6000    3.7840   -0.1190 hn        1 MOL      0.385708
     58 H26        -6.4390    4.5960   -0.1370 h1        1 MOL      0.089716
     59 H27        -5.4890    3.7810    1.0340 h1        1 MOL      0.089716
     60 N6         -5.7890    1.4410   -0.7580 n         1 MOL     -0.058268
     61 C19        -6.5180    0.2230   -1.1050 c3        1 MOL     -0.154869
     62 C20        -6.7820   -0.7800    0.0270 c         1 MOL      0.392820
     63 O10        -7.7650   -1.5200   -0.0960 o         1 MOL     -0.511393
     64 C21        -5.7870   -0.5890   -2.2420 c3        1 MOL     -0.021838
     65 C22        -4.4190   -1.2050   -1.9290 c         1 MOL      0.279765
     66 N7         -4.1290   -2.3510   -2.5200 n         1 MOL     -0.568573
     67 O11        -3.5870   -0.8170   -1.1360 o         1 MOL     -0.435360
     68 H28        -4.8500    1.2250   -0.4710 hn        1 MOL     -0.001561
     69 H29        -7.4350    0.4650   -1.6380 h1        1 MOL      0.159052
     70 H30        -5.6840    0.0610   -3.1160 hc        1 MOL      0.060187
     71 H31        -6.4400   -1.3900   -2.5750 hc        1 MOL      0.060187
     72 H32        -4.6060   -2.4200   -3.4010 hn        1 MOL      0.312932
     73 H33        -3.2870   -2.8520   -2.2480 hn        1 MOL      0.312932
     74 N8         -5.9990   -0.7360    1.1670 n         1 MOL      0.046216
     75 C23        -6.0560   -1.6480    2.2640 c3        1 MOL     -0.490396
     76 C24        -4.8140   -2.5180    2.3910 c         1 MOL      0.797618
     77 O12        -4.8160   -3.3960    3.2170 o         1 MOL     -0.583978
     78 H34        -5.2430   -0.0570    1.1340 hn        1 MOL      0.008168
     79 H35        -6.9050   -2.3390    2.2090 h1        1 MOL      0.175467
     80 H36        -6.1430   -1.0480    3.1680 h1        1 MOL      0.175467
     81 N9         -3.8480   -2.3950    1.4710 n         1 MOL     -1.073643
     82 C25        -2.6770   -3.1910    1.4100 c3        1 MOL      0.711798
     83 C26        -1.3820   -2.3690    1.3030 c         1 MOL      0.375499
     84 O13        -1.3140   -1.4620    0.5470 o         1 MOL     -0.602225
     85 C27        -2.7630   -4.1600    0.2530 c3        1 MOL     -0.081767
     86 C28        -3.9780   -5.0390    0.2850 ca        1 MOL      0.167095
     87 C29        -5.2400   -4.5960   -0.1370 ca        1 MOL     -0.330900
     88 C30        -3.7670   -6.3300    0.6990 ca        1 MOL     -0.330900
     89 C31        -6.3650   -5.4350   -0.0030 ca        1 MOL     -0.107827
     90 C32        -4.8750   -7.1900    0.7570 ca        1 MOL     -0.107827
     91 C33        -6.1680   -6.7860    0.3560 ca        1 MOL      0.224721
     92 O14        -7.1830   -7.6550    0.3320 oh        1 MOL     -0.427901
     93 H37        -4.0700   -1.7560    0.7250 hn        1 MOL      0.806525
     94 H38        -2.6350   -3.7890    2.3220 h1        1 MOL     -0.061392
     95 H39        -1.8710   -4.7820    0.2410 hc        1 MOL     -0.018650
     96 H40        -2.8510   -3.4890   -0.6040 hc        1 MOL     -0.018650
     97 H41        -5.3200   -3.6320   -0.6230 ha        1 MOL      0.152104
     98 H42        -2.7940   -6.6080    1.0620 ha        1 MOL      0.152104
     99 H43        -7.4070   -5.1560   -0.1130 ha        1 MOL      0.118023
    100 H44        -4.6430   -8.1720    1.1310 ha        1 MOL      0.118023
    101 H45        -6.8820   -8.4780    0.7080 ho        1 MOL      0.334721
    102 N10        -0.3300   -2.8080    1.9460 n         1 MOL     -0.660830
    103 C34         1.0400   -2.2340    1.8570 c3        1 MOL      0.110955
    104 C35         1.9220   -3.2310    1.1820 c         1 MOL      0.638855
    105 O15         2.2740   -4.2110    1.7570 o         1 MOL     -0.596436
    106 C36         1.4800   -1.8720    3.2950 c3        1 MOL      0.098213
    107 C37         0.5510   -0.7820    3.8420 c3        1 MOL      0.171522
    108 C38         2.8550   -1.2800    3.1710 c3        1 MOL     -0.384665
    109 C39         0.7310   -0.5140    5.3410 c3        1 MOL     -0.201089
    110 H46        -0.3550   -3.5910    2.5690 hn        1 MOL      0.318735
    111 H47         1.0680   -1.3010    1.2800 h1        1 MOL      0.128407
    112 H48         1.5440   -2.7070    3.9950 hc        1 MOL      0.011914
    113 H49        -0.4620   -1.1630    3.7780 hc        1 MOL     -0.000113
    114 H50         0.7750    0.1050    3.2470 hc        1 MOL     -0.000113
    115 H51         3.2680   -0.8710    4.0950 hc        1 MOL      0.085171
    116 H52         3.5390   -2.0740    2.9020 hc        1 MOL      0.085171
    117 H53         2.8180   -0.4650    2.4540 hc        1 MOL      0.085171
    118 H54         0.0360    0.2740    5.6280 hc        1 MOL      0.040697
    119 H55         0.3930   -1.3130    6.0120 hc        1 MOL      0.040697
    120 H56         1.7420   -0.2070    5.5830 hc        1 MOL      0.040697
    121 N11         2.2070   -2.9790   -0.0330 n         1 MOL     -0.446910
    122 C40         3.1500   -3.7320   -0.8570 c3        1 MOL      0.148149
    123 C41         4.5910   -3.4520   -0.3830 c         1 MOL      0.369605
    124 O16         4.8900   -2.3870    0.1390 o         1 MOL     -0.315191
    125 C42         2.9890   -3.4360   -2.3310 c3        1 MOL      0.000182
    126 O17         4.1210   -3.7750   -3.1150 oh        1 MOL     -0.519005
    127 H57         1.6290   -2.2420   -0.4160 hn        1 MOL      0.287036
    128 H58         2.9100   -4.7840   -0.7140 h1        1 MOL      0.019123
    129 H59         2.8440   -2.3570   -2.3910 h1        1 MOL      0.055427
    130 H60         2.0600   -3.9250   -2.6330 h1        1 MOL      0.055427
    131 H61         3.9430   -4.6550   -3.4530 ho        1 MOL      0.377164
    132 N12         5.5200   -4.3860   -0.6660 n         1 MOL     -0.409550
    133 C43         6.9050   -4.2190   -0.2600 c3        1 MOL     -0.015553
    134 C44         7.6030   -3.0330   -0.9930 c         1 MOL      0.509728
    135 O18         8.5520   -2.4750   -0.4250 o         1 MOL     -0.532925
    136 C45         7.6050   -5.5890   -0.4640 c3        1 MOL     -0.294563
    137 H62         5.2290   -5.2350   -1.1190 hn        1 MOL      0.283218
    138 H63         7.0140   -4.0330    0.8090 h1        1 MOL      0.137456
    139 H64         6.9980   -6.3770   -0.0210 hc        1 MOL      0.099724
    140 H65         7.6530   -5.8900   -1.5130 hc        1 MOL      0.099724
    141 H66         8.6120   -5.7240   -0.0550 hc        1 MOL      0.099724
    142 N13         7.1030   -2.5690   -2.1110 n         1 MOL     -0.352161
    143 C46         7.5320   -1.3300   -2.7080 c3        1 MOL      0.035782
    144 C47         7.2100   -0.0750   -1.8600 c         1 MOL      0.454186
    145 O19         8.0300    0.8460   -1.7690 o         1 MOL     -0.490429
    146 C48         6.9500   -1.1620   -4.1410 c3        1 MOL     -0.235995
    147 H67         6.3110   -3.0120   -2.5510 hn        1 MOL      0.234227
    148 H68         8.6280   -1.3500   -2.7500 h1        1 MOL      0.096958
    149 H69         5.8590   -1.1650   -4.0990 hc        1 MOL      0.069384
    150 H70         7.4230   -0.3400   -4.6760 hc        1 MOL      0.069384
    151 H71         7.0860   -2.0840   -4.6940 hc        1 MOL      0.069384
    152 N14         5.9980   -0.1350   -1.2280 n         1 MOL     -0.314922
    153 C49         5.5200    0.8550   -0.3250 c3        1 MOL     -0.219613
    154 C50         6.2450    0.8010    0.9940 c         1 MOL      0.560642
    155 O20         6.6060    1.8240    1.5030 o         1 MOL     -0.583387
    156 C51         4.0000    0.6610   -0.1050 c3        1 MOL      0.075294
    157 C52         3.1710    0.7580   -1.3950 c3        1 MOL     -0.209660
    158 C53         1.6760    0.7400   -0.9770 c         1 MOL      0.954388
    159 O21         0.9080    1.7060   -1.0060 o         1 MOL     -0.785404
    160 O22         1.2350   -0.3700   -0.7350 o         1 MOL     -0.785404
    161 H72         5.4260   -0.9630   -1.3360 hn        1 MOL      0.388752
    162 H73         5.7410    1.8380   -0.7350 h1        1 MOL      0.121247
    163 H74         3.6960    1.4530    0.5830 hc        1 MOL      0.003593
    164 H75         3.8060   -0.2810    0.4090 hc        1 MOL      0.003593
    165 H76         3.3190   -0.1190   -2.0150 hc        1 MOL      0.003494
    166 H77         3.4480    1.6070   -2.0260 hc        1 MOL      0.003494
    167 N15         6.5160   -0.3620    1.4270 n         1 MOL     -0.044624
    168 C54         7.2360   -0.4880    2.6860 c3        1 MOL     -0.455349
    169 H78         6.8710    0.2620    3.3890 h1        1 MOL      0.151889
    170 H79         7.0740   -1.4830    3.1010 h1        1 MOL      0.151889
    171 H80         8.3010   -0.3340    2.5130 h1        1 MOL      0.151889
    172 H81         6.3110   -1.2020    0.9010 hn        1 MOL      0.096061
    173 Ca1        -1.0970    0.1170   -1.5420 Ca        1 MOL      1.685731
    174 O23         0.3460    0.4150   -3.8260 oh        1 MOL     -0.863936
    175 H82         0.0690    1.0490   -4.4790 ho        1 MOL      0.412237
    176 H83         0.6090   -0.3550   -4.3260 ho        1 MOL      0.412237
    177 O24        -0.9140   -2.3440   -2.8260 oh        1 MOL     -0.863936
    178 H84        -0.5310   -3.1790   -2.5460 ho        1 MOL      0.412237
    179 H85        -0.8660   -2.3730   -3.7790 ho        1 MOL      0.412237
@<TRIPOS>BOND
     1    1    2 1   
     2    1    4 1   
     3    1    5 1   
     4    1    6 1   
     5    2    3 2   
     6    2    7 1   
     7    7    8 1   
     8    7   15 1   
     9    8    9 1   
    10    8   11 1   
    11    8   16 1   
    12    9   10 2   
    13    9   19 1   
    14   11   12 1   
    15   11   17 1   
    16   11   18 1   
    17   12   13 1   
    18   12   14 1   
    19   19   20 1   
    20   19   28 1   
    21   20   21 1   
    22   20   23 1   
    23   20   29 1   
    24   21   22 2   
    25   21   41 1   
    26   23   24 1   
    27   23   30 1   
    28   23   31 1   
    29   24   25 1   
    30   24   32 1   
    31   24   33 1   
    32   25   26 1   
    33   25   34 1   
    34   25   35 1   
    35   26   27 1   
    36   26   36 1   
    37   26   37 1   
    38   27   38 1   
    39   27   39 1   
    40   27   40 1   
    41   41   42 1   
    42   41   49 1   
    43   42   43 1   
    44   42   45 1   
    45   42   50 1   
    46   43   44 2   
    47   43   53 1   
    48   45   46 1   
    49   45   51 1   
    50   45   52 1   
    51   46   47 1   
    52   46   48 1   
    53   53   54 1   
    54   53   57 1   
    55   54   55 1   
    56   54   58 1   
    57   54   59 1   
    58   55   56 2   
    59   55   60 1   
    60   60   61 1   
    61   60   68 1   
    62   61   62 1   
    63   61   64 1   
    64   61   69 1   
    65   62   63 2   
    66   62   74 1   
    67   64   65 1   
    68   64   70 1   
    69   64   71 1   
    70   65   66 1   
    71   65   67 2   
    72   66   72 1   
    73   66   73 1   
    74   74   75 1   
    75   74   78 1   
    76   75   76 1   
    77   75   79 1   
    78   75   80 1   
    79   76   77 2   
    80   76   81 1   
    81   81   82 1   
    82   81   93 1   
    83   82   83 1   
    84   82   85 1   
    85   82   94 1   
    86   83   84 2   
    87   83  102 1   
    88   85   86 1   
    89   85   95 1   
    90   85   96 1   
    91   86   87 ar  
    92   86   88 ar  
    93   87   89 ar  
    94   87   97 1   
    95   88   90 ar  
    96   88   98 1   
    97   89   91 ar  
    98   89   99 1   
    99   90   91 ar  
   100   90  100 1   
   101   91   92 1   
   102   92  101 1   
   103  102  103 1   
   104  102  110 1   
   105  103  104 1   
   106  103  106 1   
   107  103  111 1   
   108  104  105 2   
   109  104  121 1   
   110  106  107 1   
   111  106  108 1   
   112  106  112 1   
   113  107  109 1   
   114  107  113 1   
   115  107  114 1   
   116  108  115 1   
   117  108  116 1   
   118  108  117 1   
   119  109  118 1   
   120  109  119 1   
   121  109  120 1   
   122  121  122 1   
   123  121  127 1   
   124  122  123 1   
   125  122  125 1   
   126  122  128 1   
   127  123  124 2   
   128  123  132 1   
   129  125  126 1   
   130  125  129 1   
   131  125  130 1   
   132  126  131 1   
   133  132  133 1   
   134  132  137 1   
   135  133  134 1   
   136  133  136 1   
   137  133  138 1   
   138  134  135 2   
   139  134  142 1   
   140  136  139 1   
   141  136  140 1   
   142  136  141 1   
   143  142  143 1   
   144  142  147 1   
   145  143  144 1   
   146  143  146 1   
   147  143  148 1   
   148  144  145 2   
   149  144  152 1   
   150  146  149 1   
   151  146  150 1   
   152  146  151 1   
   153  152  153 1   
   154  152  161 1   
   155  153  154 1   
   156  153  156 1   
   157  153  162 1   
   158  154  155 2   
   159  154  167 1   
   160  156  157 1   
   161  156  163 1   
   162  156  164 1   
   163  157  158 1   
   164  157  165 1   
   165  157  166 1   
   166  158  159 1   
   167  158  160 1   
   168  167  168 1   
   169  167  172 1   
   170  168  169 1   
   171  168  170 1   
   172  168  171 1   
   173  174  175 1   
   174  174  176 1   
   175  177  178 1   
   176  177  179 1   
@<TRIPOS>SUBSTRUCTURE
     1 MOL         1 TEMP              0 ****  ****    0 ROOT
