@<TRIPOS>MOLECULE
MOL
  181   177     1     0     0
SMALL
resp


@<TRIPOS>ATOM
      1 C1         -0.5250    4.6830    4.7620 c3        1 MOL     -0.329889
      2 C2         -0.8790    4.0570    3.3680 c         1 MOL      0.768850
      3 O1         -0.1790    4.4550    2.4300 o         1 MOL     -0.595727
      4 H1         -0.0450    5.6500    4.6130 hc        1 MOL      0.079107
      5 H2         -1.4370    4.8170    5.3430 hc        1 MOL      0.079107
      6 H3          0.1530    4.0190    5.2980 hc        1 MOL      0.079107
      7 N1         -1.8330    3.1160    3.2280 n         1 MOL     -0.703660
      8 C3         -2.2410    2.5440    1.8860 c3        1 MOL      0.196808
      9 C4         -2.5800    3.6710    0.9140 c         1 MOL      0.492122
     10 O2         -3.6280    4.3590    1.0600 o         1 MOL     -0.555203
     11 C5         -3.3350    1.5320    2.0710 c3        1 MOL     -0.131583
     12 C6         -3.6000    0.7100    0.7690 c         1 MOL      0.171841
     13 O3         -4.4260   -0.2600    0.8170 o         1 MOL     -0.534655
     14 O4         -3.1140    0.9850   -0.3510 o         1 MOL     -0.534655
     15 H4         -2.0890    2.5260    4.0060 hn        1 MOL      0.320283
     16 H5         -1.4080    1.9740    1.4910 h1        1 MOL      0.054510
     17 H6         -4.2970    1.9720    2.2910 hc        1 MOL      0.075575
     18 H7         -3.0510    0.7950    2.8250 hc        1 MOL      0.075575
     19 N2         -1.7260    3.8260   -0.0680 n         1 MOL     -0.200874
     20 C7         -2.0630    4.7320   -1.1890 c3        1 MOL      0.046187
     21 C8         -3.4760    4.4890   -1.7960 c         1 MOL      0.455468
     22 O5         -4.0340    5.4720   -2.2340 o         1 MOL     -0.572334
     23 C9         -1.0670    4.6060   -2.2660 c3        1 MOL     -0.069668
     24 H8         -1.0460    3.1150   -0.2870 hn        1 MOL      0.228463
     25 H9         -1.9880    5.7410   -0.7830 h1        1 MOL      0.043873
     26 H10        -1.0740    3.6470   -2.7960 hc        1 MOL      0.023447
     27 H11        -1.2450    5.3780   -3.0080 hc        1 MOL      0.023447
     28 H12        -0.0590    4.6880   -1.8330 hc        1 MOL      0.023447
     29 N3         -4.0230    3.2750   -1.6710 n         1 MOL      0.063159
     30 C10        -5.2770    2.8520   -2.1710 c3        1 MOL     -0.270915
     31 C11        -6.4290    2.8560   -1.1100 c         1 MOL      0.418065
     32 O6         -7.5520    2.6040   -1.5450 o         1 MOL     -0.519979
     33 C12        -5.0930    1.4530   -2.7470 c3        1 MOL      0.423757
     34 C13        -3.9100    1.4160   -3.6500 c         1 MOL      0.484608
     35 O7         -3.8780    2.1680   -4.6340 o         1 MOL     -0.672076
     36 O8         -3.0600    0.4700   -3.6040 o         1 MOL     -0.672076
     37 H13        -3.5080    2.5430   -1.1950 hn        1 MOL     -0.013074
     38 H14        -5.6330    3.5210   -2.9570 h1        1 MOL      0.102201
     39 H15        -6.0110    1.1760   -3.2670 hc        1 MOL     -0.098654
     40 H16        -4.9750    0.7060   -1.9620 hc        1 MOL     -0.098654
     41 N4         -6.1070    3.0940    0.1950 n         1 MOL     -0.100033
     42 C14        -7.1030    2.8970    1.3410 c3        1 MOL     -0.187858
     43 C15        -7.8210    1.5100    1.3470 c         1 MOL      0.473607
     44 O9         -8.8860    1.3800    1.9230 o         1 MOL     -0.557580
     45 H17        -5.2020    3.5040    0.3910 hn        1 MOL      0.120582
     46 H18        -7.8000    3.7260    1.1850 h1        1 MOL      0.102818
     47 H19        -6.6160    3.0000    2.2980 h1        1 MOL      0.102818
     48 N5         -7.2030    0.4180    0.7650 n         1 MOL     -0.117830
     49 C16        -7.8080   -0.8600    0.5480 c3        1 MOL      0.060279
     50 C17        -7.0150   -2.0050    1.2780 c         1 MOL      0.413378
     51 O10        -7.1300   -3.1720    0.8900 o         1 MOL     -0.464890
     52 C18        -7.8870   -0.9920   -0.9870 c3        1 MOL     -0.215795
     53 C19        -8.5100   -2.3400   -1.3680 c         1 MOL      0.660296
     54 N6         -7.8800   -3.2130   -2.1780 n         1 MOL     -0.833106
     55 O11        -9.6730   -2.5470   -1.1230 o         1 MOL     -0.578229
     56 H20        -6.2530    0.5000    0.4340 hn        1 MOL      0.104992
     57 H21        -8.7990   -0.9460    1.0050 h1        1 MOL      0.064309
     58 H22        -6.9240   -0.8870   -1.4860 hc        1 MOL      0.094815
     59 H23        -8.4820   -0.1800   -1.3870 hc        1 MOL      0.094815
     60 H24        -6.9270   -3.0040   -2.4210 hn        1 MOL      0.365428
     61 H25        -8.3730   -3.9710   -2.6230 hn        1 MOL      0.365428
     62 N7         -6.2950   -1.7900    2.4040 n         1 MOL     -0.246773
     63 C20        -5.8320   -2.8740    3.1960 c3        1 MOL     -0.127113
     64 C21        -4.5520   -3.5130    2.8050 c         1 MOL      0.580162
     65 O12        -4.3240   -4.5790    3.3690 o         1 MOL     -0.598035
     66 H26        -6.4430   -0.8840    2.8400 hn        1 MOL      0.208590
     67 H27        -6.5000   -3.7380    3.1740 h1        1 MOL      0.088001
     68 H28        -5.7250   -2.5870    4.2460 h1        1 MOL      0.088001
     69 N8         -3.6920   -2.9510    1.9670 n         1 MOL     -0.438712
     70 C22        -2.4920   -3.6200    1.5780 c3        1 MOL      0.124730
     71 C23        -1.3020   -2.6740    1.2750 c         1 MOL      0.204159
     72 O13        -1.4530   -1.6560    0.5770 o         1 MOL     -0.257058
     73 C24        -2.6060   -4.7090    0.4850 c3        1 MOL      0.411684
     74 C25        -3.1320   -6.0010    1.0690 c3        1 MOL     -0.633157
     75 O14        -3.4760   -4.3640   -0.5770 oh        1 MOL     -0.627095
     76 H29        -3.9910   -2.0560    1.6010 hn        1 MOL      0.313175
     77 H30        -2.1390   -4.1730    2.4480 h1        1 MOL      0.059648
     78 H31        -1.5790   -4.8160    0.1310 h1        1 MOL     -0.018730
     79 H32        -3.3240   -5.0400   -1.2380 ho        1 MOL      0.413505
     80 H33        -3.0900   -6.7380    0.2680 hc        1 MOL      0.162683
     81 H34        -2.4560   -6.2910    1.8780 hc        1 MOL      0.162683
     82 H35        -4.1670   -5.9450    1.3930 hc        1 MOL      0.162683
     83 N9         -0.0800   -2.8670    1.7900 n         1 MOL     -0.273560
     84 C26         1.0890   -1.9810    1.5200 c3        1 MOL      0.002784
     85 C27         2.2810   -2.7610    0.8880 c         1 MOL      0.455607
     86 O15         2.8360   -3.7270    1.4100 o         1 MOL     -0.549938
     87 C28         1.5430   -1.1430    2.7070 c3        1 MOL      0.267166
     88 C29         1.6320   -1.9320    4.0150 c3        1 MOL      0.023849
     89 C30         0.6200    0.0420    2.8810 c3        1 MOL     -0.420622
     90 C31         2.2950   -1.2340    5.1760 c3        1 MOL     -0.237036
     91 H36         0.0390   -3.6650    2.3930 hn        1 MOL      0.210443
     92 H37         0.7880   -1.2070    0.8110 h1        1 MOL     -0.073208
     93 H38         2.5280   -0.7910    2.4180 hc        1 MOL     -0.073019
     94 H39         2.1870   -2.8430    3.8090 hc        1 MOL      0.011915
     95 H40         0.5970   -2.1250    4.3380 hc        1 MOL      0.011915
     96 H41         1.1730    0.7860    3.4540 hc        1 MOL      0.106479
     97 H42         0.4860    0.6130    1.9620 hc        1 MOL      0.106479
     98 H43        -0.3090   -0.1240    3.4240 hc        1 MOL      0.106479
     99 H44         3.3250   -0.9570    4.9790 hc        1 MOL      0.048511
    100 H45         1.7500   -0.3130    5.4010 hc        1 MOL      0.048511
    101 H46         2.3260   -1.9880    5.9600 hc        1 MOL      0.048511
    102 N10         2.6890   -2.2330   -0.3100 n         1 MOL     -0.394341
    103 C32         3.9250   -2.5890   -0.9450 c3        1 MOL      0.335221
    104 C33         5.0800   -1.7270   -0.4510 c         1 MOL      0.218656
    105 O16         4.8150   -0.8330    0.3740 o         1 MOL     -0.225432
    106 C34         3.8340   -2.4330   -2.4570 c3        1 MOL     -0.495988
    107 C35         2.7090   -3.1580   -3.1610 c         1 MOL      0.793394
    108 O17         2.5170   -2.8120   -4.3590 o         1 MOL     -0.694979
    109 O18         1.9720   -3.9940   -2.6050 o         1 MOL     -0.694979
    110 H47         2.1200   -1.5520   -0.8020 hn        1 MOL      0.436822
    111 H48         4.1220   -3.6470   -0.7500 h1        1 MOL      0.029596
    112 H49         4.7920   -2.7510   -2.8620 hc        1 MOL      0.095389
    113 H50         3.7560   -1.3660   -2.6680 hc        1 MOL      0.095389
    114 N11         6.3490   -2.0220   -0.7930 n         1 MOL     -0.592951
    115 C36         7.5230   -1.3860   -0.2160 c3        1 MOL      0.410920
    116 C37         7.6680    0.2140   -0.3170 c         1 MOL      0.231454
    117 O19         8.3340    0.8550    0.5110 o         1 MOL     -0.450696
    118 C38         8.7460   -2.2020   -0.6520 c3        1 MOL     -0.074790
    119 C39        10.1310   -1.7010   -0.2570 ca        1 MOL      0.037338
    120 C40        10.3330   -1.4130    1.1350 ca        1 MOL     -0.183326
    121 C41        11.0460   -1.2790   -1.1530 ca        1 MOL     -0.183326
    122 C42        11.4810   -0.7420    1.6260 ca        1 MOL     -0.057195
    123 C43        12.1660   -0.5030   -0.6970 ca        1 MOL     -0.057195
    124 C44        12.3740   -0.2640    0.6670 ca        1 MOL     -0.165904
    125 H51         6.4680   -2.6870   -1.5400 hn        1 MOL      0.306161
    126 H52         7.4250   -1.6120    0.8470 h1        1 MOL      0.042735
    127 H53         8.7270   -2.1670   -1.7400 hc        1 MOL      0.030144
    128 H54         8.5690   -3.2560   -0.4300 hc        1 MOL      0.030144
    129 H55         9.5670   -1.7320    1.8310 ha        1 MOL      0.110620
    130 H56        10.8840   -1.4340   -2.2130 ha        1 MOL      0.110620
    131 H57        11.5020   -0.4960    2.6730 ha        1 MOL      0.100979
    132 H58        12.8850   -0.2270   -1.4480 ha        1 MOL      0.100979
    133 H59        13.2420    0.2140    1.1120 ha        1 MOL      0.111426
    134 N12         7.0740    0.9210   -1.2840 n         1 MOL     -0.002548
    135 C45         6.9670    2.4210   -1.3150 c3        1 MOL      0.071198
    136 C46         6.0340    3.0190   -0.2660 c         1 MOL      0.256050
    137 O20         6.3000    4.1270    0.1650 o         1 MOL     -0.486018
    138 C47         6.3920    2.7480   -2.7230 c3        1 MOL      0.027971
    139 C48         6.7970    1.5550   -3.5610 c3        1 MOL     -0.234518
    140 C49         6.7610    0.3690   -2.5590 c3        1 MOL      0.035106
    141 H60         7.9630    2.8320   -1.2080 h1        1 MOL      0.045443
    142 H61         5.3130    2.8630   -2.6720 hc        1 MOL      0.030760
    143 H62         6.8440    3.6800   -3.0520 hc        1 MOL      0.030760
    144 H63         6.0170    1.3240   -4.2960 hc        1 MOL      0.075241
    145 H64         7.7700    1.5210   -4.0430 hc        1 MOL      0.075241
    146 H65         5.7430   -0.0270   -2.5610 h1        1 MOL      0.022561
    147 H66         7.4810   -0.3960   -2.8320 h1        1 MOL      0.022561
    148 N13         5.0030    2.2610    0.1090 n         1 MOL      0.004315
    149 C50         4.0040    2.5290    1.0620 c3        1 MOL     -0.272411
    150 C51         4.4550    2.1450    2.4320 c         1 MOL      0.563054
    151 O21         4.2080    2.8410    3.4550 o         1 MOL     -0.577687
    152 C52         2.6920    1.8500    0.6610 c3        1 MOL      0.250950
    153 C53         2.2520    1.9390   -0.7990 c3        1 MOL     -0.343507
    154 C54         0.9770    1.0960   -1.0660 c         1 MOL      0.686609
    155 O22        -0.0730    1.7260   -1.1840 o         1 MOL     -0.723347
    156 O23         0.9070   -0.1430   -1.0770 o         1 MOL     -0.723347
    157 H67         5.0200    1.2840   -0.1540 hn        1 MOL      0.078292
    158 H68         3.8000    3.6020    1.0720 h1        1 MOL      0.128351
    159 H69         1.8830    2.3160    1.2210 hc        1 MOL     -0.000819
    160 H70         2.8100    0.7880    0.8890 hc        1 MOL     -0.000819
    161 H71         3.0200    1.5510   -1.4740 hc        1 MOL      0.088933
    162 H72         2.1410    2.9830   -1.0980 hc        1 MOL      0.088933
    163 N14         5.2670    1.0860    2.5870 n         1 MOL     -0.039964
    164 C55         6.0230    0.7630    3.8160 c3        1 MOL     -0.413528
    165 H73         6.9370    1.3550    3.8460 h1        1 MOL      0.142043
    166 H74         5.4130    0.9930    4.6890 h1        1 MOL      0.142043
    167 H75         6.2770   -0.2980    3.8180 h1        1 MOL      0.142043
    168 H76         5.4320    0.4950    1.7930 hn        1 MOL      0.004661
    169 Ca1        -1.4830   -0.4690   -1.8600 Ca        1 MOL      1.688115
    170 O24         0.4800   -1.0150   -3.8750 oh        1 MOL     -0.795203
    171 H77         1.1360   -1.4850   -4.3910 ho        1 MOL      0.370417
    172 H78         0.1390   -0.3420   -4.4570 ho        1 MOL      0.370417
    173 O25        -4.0120   -1.7000   -1.3710 oh        1 MOL     -0.795203
    174 H79        -3.8410   -2.5580   -0.9830 ho        1 MOL      0.370417
    175 H80        -4.2100   -1.1350   -0.6270 ho        1 MOL      0.370417
    176 O26        -0.5430   -3.1210   -1.9100 oh        1 MOL     -0.795203
    177 H81         0.3260   -3.4210   -2.1660 ho        1 MOL      0.370417
    178 H82        -1.1350   -3.7870   -2.2650 ho        1 MOL      0.370417
    179 O27        -2.4490   -2.1680   -3.7550 oh        1 MOL     -0.795203
    180 H83        -2.4630   -2.9090   -4.3500 ho        1 MOL      0.370417
    181 H84        -3.0050   -1.5100   -4.1700 ho        1 MOL      0.370417
@<TRIPOS>BOND
     1    1    2 1   
     2    1    4 1   
     3    1    5 1   
     4    1    6 1   
     5    2    3 2   
     6    2    7 1   
     7    7    8 1   
     8    7   15 1   
     9    8    9 1   
    10    8   11 1   
    11    8   16 1   
    12    9   10 2   
    13    9   19 1   
    14   11   12 1   
    15   11   17 1   
    16   11   18 1   
    17   12   13 1   
    18   12   14 1   
    19   19   20 1   
    20   19   24 1   
    21   20   21 1   
    22   20   23 1   
    23   20   25 1   
    24   21   22 2   
    25   21   29 1   
    26   23   26 1   
    27   23   27 1   
    28   23   28 1   
    29   29   30 1   
    30   29   37 1   
    31   30   31 1   
    32   30   33 1   
    33   30   38 1   
    34   31   32 2   
    35   31   41 1   
    36   33   34 1   
    37   33   39 1   
    38   33   40 1   
    39   34   35 1   
    40   34   36 1   
    41   41   42 1   
    42   41   45 1   
    43   42   43 1   
    44   42   46 1   
    45   42   47 1   
    46   43   44 2   
    47   43   48 1   
    48   48   49 1   
    49   48   56 1   
    50   49   50 1   
    51   49   52 1   
    52   49   57 1   
    53   50   51 2   
    54   50   62 1   
    55   52   53 1   
    56   52   58 1   
    57   52   59 1   
    58   53   54 1   
    59   53   55 2   
    60   54   60 1   
    61   54   61 1   
    62   62   63 1   
    63   62   66 1   
    64   63   64 1   
    65   63   67 1   
    66   63   68 1   
    67   64   65 2   
    68   64   69 1   
    69   69   70 1   
    70   69   76 1   
    71   70   71 1   
    72   70   73 1   
    73   70   77 1   
    74   71   72 2   
    75   71   83 1   
    76   73   74 1   
    77   73   75 1   
    78   73   78 1   
    79   74   80 1   
    80   74   81 1   
    81   74   82 1   
    82   75   79 1   
    83   83   84 1   
    84   83   91 1   
    85   84   85 1   
    86   84   87 1   
    87   84   92 1   
    88   85   86 2   
    89   85  102 1   
    90   87   88 1   
    91   87   89 1   
    92   87   93 1   
    93   88   90 1   
    94   88   94 1   
    95   88   95 1   
    96   89   96 1   
    97   89   97 1   
    98   89   98 1   
    99   90   99 1   
   100   90  100 1   
   101   90  101 1   
   102  102  103 1   
   103  102  110 1   
   104  103  104 1   
   105  103  106 1   
   106  103  111 1   
   107  104  105 2   
   108  104  114 1   
   109  106  107 1   
   110  106  112 1   
   111  106  113 1   
   112  107  108 1   
   113  107  109 1   
   114  114  115 1   
   115  114  125 1   
   116  115  116 1   
   117  115  118 1   
   118  115  126 1   
   119  116  117 2   
   120  116  134 1   
   121  118  119 1   
   122  118  127 1   
   123  118  128 1   
   124  119  120 ar  
   125  119  121 ar  
   126  120  122 ar  
   127  120  129 1   
   128  121  123 ar  
   129  121  130 1   
   130  122  124 ar  
   131  122  131 1   
   132  123  124 ar  
   133  123  132 1   
   134  124  133 1   
   135  134  135 1   
   136  134  140 1   
   137  135  136 1   
   138  135  138 1   
   139  135  141 1   
   140  136  137 2   
   141  136  148 1   
   142  138  139 1   
   143  138  142 1   
   144  138  143 1   
   145  139  140 1   
   146  139  144 1   
   147  139  145 1   
   148  140  146 1   
   149  140  147 1   
   150  148  149 1   
   151  148  157 1   
   152  149  150 1   
   153  149  152 1   
   154  149  158 1   
   155  150  151 2   
   156  150  163 1   
   157  152  153 1   
   158  152  159 1   
   159  152  160 1   
   160  153  154 1   
   161  153  161 1   
   162  153  162 1   
   163  154  155 1   
   164  154  156 1   
   165  163  164 1   
   166  163  168 1   
   167  164  165 1   
   168  164  166 1   
   169  164  167 1   
   170  170  171 1   
   171  170  172 1   
   172  173  174 1   
   173  173  175 1   
   174  176  177 1   
   175  176  178 1   
   176  179  180 1   
   177  179  181 1   
@<TRIPOS>SUBSTRUCTURE
     1 MOL         1 TEMP              0 ****  ****    0 ROOT
