@<TRIPOS>MOLECULE
MOL
  189   185     1     0     0
SMALL
resp


@<TRIPOS>ATOM
      1 C1          0.6820   -3.6980    5.8850 c3        1 MOL     -0.496282
      2 C2          0.9590   -3.1730    4.4750 c         1 MOL      0.731070
      3 O1          0.6590   -2.0670    4.0200 o         1 MOL     -0.585145
      4 H1          1.0860   -4.7060    5.9820 hc        1 MOL      0.129501
      5 H2          1.1580   -3.0450    6.6160 hc        1 MOL      0.129501
      6 H3         -0.3940   -3.7200    6.0610 hc        1 MOL      0.129501
      7 N1          1.5830   -4.0980    3.7100 n         1 MOL     -0.576242
      8 C3          2.2820   -3.7280    2.4250 c3        1 MOL      0.264210
      9 C4          2.2460   -4.9210    1.4490 c         1 MOL      0.348595
     10 O2          2.4770   -6.0200    1.9190 o         1 MOL     -0.544937
     11 C5          3.7470   -3.4320    2.5860 c3        1 MOL     -0.324465
     12 C6          4.3920   -2.7900    1.3180 c         1 MOL      0.867047
     13 O3          3.6900   -2.2520    0.4510 o         1 MOL     -0.712419
     14 O4          5.6170   -2.6400    1.3700 o         1 MOL     -0.712419
     15 H4          1.9120   -4.9150    4.2000 hn        1 MOL      0.302470
     16 H5          1.6820   -2.9050    2.0470 h1        1 MOL      0.035654
     17 H6          4.3860   -4.2940    2.7680 hc        1 MOL      0.055276
     18 H7          3.7870   -2.6630    3.3630 hc        1 MOL      0.055276
     19 N2          2.0940   -4.7220    0.1490 n         1 MOL     -0.031415
     20 C7          2.3160   -5.7550   -0.9230 c3        1 MOL     -0.251184
     21 C8          3.1560   -5.2250   -2.1500 c         1 MOL      0.556358
     22 O5          3.2060   -5.9740   -3.1200 o         1 MOL     -0.575090
     23 C9          1.0660   -6.4710   -1.3710 c3        1 MOL      0.329091
     24 C10        -0.1330   -5.5320   -1.7280 c3        1 MOL      0.228812
     25 C11         0.5200   -7.2820   -0.2470 c3        1 MOL     -0.230929
     26 C12        -1.3680   -6.2510   -2.3730 c3        1 MOL     -0.459542
     27 H8          1.6500   -3.8820   -0.1860 hn        1 MOL      0.058167
     28 H9          2.9850   -6.5310   -0.5400 h1        1 MOL      0.105878
     29 H10         1.1970   -7.1200   -2.2400 hc        1 MOL     -0.058308
     30 H11         0.2600   -4.8940   -2.5300 hc        1 MOL     -0.014187
     31 H12        -0.4990   -4.9550   -0.8800 hc        1 MOL     -0.014187
     32 H13         1.3310   -7.8370    0.2330 hc        1 MOL      0.023538
     33 H14         0.0820   -6.6350    0.5110 hc        1 MOL      0.023538
     34 H15        -0.2380   -7.9930   -0.5610 hc        1 MOL      0.023538
     35 H16        -1.0250   -6.9120   -3.1710 hc        1 MOL      0.101221
     36 H17        -1.9120   -6.7640   -1.5670 hc        1 MOL      0.101221
     37 H18        -1.9180   -5.4210   -2.8140 hc        1 MOL      0.101221
     38 N3          3.8090   -4.0820   -2.0920 n         1 MOL     -0.518251
     39 C13         4.4600   -3.3650   -3.2400 c3        1 MOL      0.294509
     40 C14         5.6960   -2.4920   -2.7940 c         1 MOL      0.263229
     41 O6          6.5520   -2.1670   -3.6590 o         1 MOL     -0.555734
     42 C15         3.5440   -2.4690   -4.1550 c3        1 MOL     -0.321898
     43 C16         2.5620   -1.5610   -3.3800 c         1 MOL      0.888298
     44 O7          2.9380   -1.2610   -2.2220 o         1 MOL     -0.728236
     45 O8          1.5750   -1.1310   -3.9730 o         1 MOL     -0.728236
     46 H19         3.8070   -3.5730   -1.2190 hn        1 MOL      0.314521
     47 H20         4.8220   -4.1100   -3.9480 h1        1 MOL      0.017482
     48 H21         2.8730   -3.1740   -4.6450 hc        1 MOL      0.066778
     49 H22         4.1630   -1.8930   -4.8430 hc        1 MOL      0.066778
     50 N4          5.7850   -2.0410   -1.5750 n         1 MOL      0.008088
     51 C17         7.0230   -1.3910   -1.1290 c3        1 MOL     -0.125264
     52 C18         7.1900    0.0120   -1.5970 c         1 MOL      0.455746
     53 O9          8.2570    0.5550   -1.5700 o         1 MOL     -0.619586
     54 H23         5.1690   -2.4280   -0.8600 hn        1 MOL      0.004113
     55 H24         7.9250   -1.8800   -1.4990 h1        1 MOL      0.086181
     56 H25         7.1580   -1.4780   -0.0520 h1        1 MOL      0.086181
     57 N5          6.1250    0.6710   -2.0090 n         1 MOL      0.015868
     58 C19         6.1660    2.0080   -2.5450 c3        1 MOL      0.018614
     59 C20         6.4050    3.0480   -1.3480 c         1 MOL      0.406983
     60 O10         6.4840    4.2550   -1.5450 o         1 MOL     -0.524231
     61 C21         4.8930    2.3950   -3.3110 c3        1 MOL     -0.312844
     62 C22         3.6340    2.3750   -2.4290 c         1 MOL      0.743608
     63 O11         3.7140    2.0120   -1.2470 o         1 MOL     -0.697413
     64 O12         2.5900    2.7710   -3.0460 o         1 MOL     -0.697413
     65 H26         5.2860    0.1160   -2.1090 hn        1 MOL      0.036009
     66 H27         7.0330    2.0730   -3.1990 h1        1 MOL      0.063266
     67 H28         4.8810    1.6070   -4.0710 hc        1 MOL      0.089790
     68 H29         5.0010    3.3900   -3.7470 hc        1 MOL      0.089790
     69 N6          6.6980    2.4960   -0.1150 n         1 MOL     -0.192724
     70 C23         6.8610    3.2780    1.0270 c3        1 MOL     -0.138466
     71 C24         5.6600    4.0600    1.5950 c         1 MOL      0.467284
     72 O13         5.8920    5.0110    2.3500 o         1 MOL     -0.556512
     73 H30         6.5790    1.4990   -0.1040 hn        1 MOL      0.146845
     74 H31         7.6870    3.9740    0.8690 h1        1 MOL      0.071142
     75 H32         7.2690    2.6350    1.8060 h1        1 MOL      0.071142
     76 N7          4.4750    3.6000    1.1930 n         1 MOL     -0.329982
     77 C25         3.2360    4.2440    1.6160 c3        1 MOL     -0.163040
     78 C26         2.1420    3.1390    1.9040 c         1 MOL      0.677591
     79 O14         2.0350    2.2840    1.0840 o         1 MOL     -0.649743
     80 C27         2.6510    5.2490    0.6200 c3        1 MOL      0.109482
     81 C28         3.7200    6.2280    0.1930 c3        1 MOL     -0.193938
     82 C29         3.0830    7.4040   -0.4230 c         1 MOL      0.661136
     83 N8          3.0460    7.3940   -1.7750 n         1 MOL     -0.846336
     84 O15         2.6210    8.2820    0.2250 o         1 MOL     -0.582096
     85 H33         4.4100    2.7670    0.6330 hn        1 MOL      0.391501
     86 H34         3.4780    4.8140    2.5150 h1        1 MOL      0.078614
     87 H35         1.8160    5.7540    1.0970 hc        1 MOL      0.031522
     88 H36         2.2800    4.8210   -0.3060 hc        1 MOL      0.031522
     89 H37         4.4920    5.7910   -0.4500 hc        1 MOL      0.075977
     90 H38         4.1490    6.5740    1.1270 hc        1 MOL      0.075977
     91 H39         3.4950    6.6530   -2.2960 hn        1 MOL      0.366394
     92 H40         2.5650    8.1030   -2.3120 hn        1 MOL      0.366394
     93 N9          1.3510    3.1690    2.9140 n         1 MOL     -0.616825
     94 C30         0.1280    2.2960    2.9820 c3        1 MOL      0.051609
     95 C31        -0.9110    2.8970    1.9890 c         1 MOL      0.562623
     96 O16        -1.0090    4.1280    1.8540 o         1 MOL     -0.610547
     97 C32        -0.3040    2.1000    4.4270 c3        1 MOL      0.188586
     98 C33        -0.6370    3.4360    5.1250 c3        1 MOL     -0.201177
     99 C34        -1.3470    0.9990    4.7410 c3        1 MOL     -0.201177
    100 H41         1.3670    4.0100    3.4750 hn        1 MOL      0.315695
    101 H42         0.3000    1.2720    2.6460 h1        1 MOL      0.180699
    102 H43         0.6190    1.6800    4.8260 hc        1 MOL     -0.019805
    103 H44         0.2280    4.1000    5.1300 hc        1 MOL      0.037967
    104 H45        -1.5490    3.8600    4.7130 hc        1 MOL      0.037967
    105 H46        -0.8770    3.3550    6.1820 hc        1 MOL      0.037967
    106 H47        -0.9490    0.0560    4.3690 hc        1 MOL      0.037967
    107 H48        -1.4370    1.0190    5.8270 hc        1 MOL      0.037967
    108 H49        -2.2340    1.1860    4.1340 hc        1 MOL      0.037967
    109 N10        -1.6820    2.1080    1.3270 n         1 MOL     -0.401830
    110 C35        -2.7360    2.4320    0.4250 c3        1 MOL      0.582652
    111 C36        -4.0640    1.9830    1.0740 c         1 MOL     -0.014716
    112 O17        -4.0450    1.1300    1.9400 o         1 MOL     -0.208603
    113 C37        -2.3430    1.7830   -0.8870 c3        1 MOL     -0.274997
    114 C38        -3.4830    1.4810   -1.7800 c         1 MOL      0.692817
    115 N11        -3.9490    2.4440   -2.5830 n         1 MOL     -0.756636
    116 O18        -4.0360    0.3860   -1.7920 o         1 MOL     -0.525988
    117 H50        -1.4930    1.1170    1.4360 hn        1 MOL      0.089516
    118 H51        -2.7700    3.5070    0.2640 h1        1 MOL     -0.053461
    119 H52        -1.7650    0.8660   -0.7510 hc        1 MOL      0.079572
    120 H53        -1.6650    2.3960   -1.4760 hc        1 MOL      0.079572
    121 H54        -3.5850    3.3910   -2.6190 hn        1 MOL      0.359161
    122 H55        -4.6780    2.1320   -3.2060 hn        1 MOL      0.359161
    123 N12        -5.2360    2.3980    0.5280 n         1 MOL     -0.068085
    124 C39        -6.4930    2.0750    1.1360 c3        1 MOL     -0.021323
    125 C40        -6.8550    0.6250    1.0190 c         1 MOL      0.471161
    126 O19        -7.6420    0.1130    1.8380 o         1 MOL     -0.599594
    127 C41        -7.5570    3.0640    0.5460 c3        1 MOL      0.066093
    128 C42        -7.5590    3.0450   -0.9590 ca        1 MOL      0.015144
    129 C43        -8.4340    2.1920   -1.7020 ca        1 MOL     -0.140855
    130 C44        -6.8760    4.0560   -1.6470 ca        1 MOL     -0.140855
    131 C45        -8.5280    2.3380   -3.1720 ca        1 MOL     -0.353712
    132 C46        -6.9760    4.0990   -3.0260 ca        1 MOL     -0.353712
    133 C47        -7.7400    3.2570   -3.8520 ca        1 MOL      0.521008
    134 O20        -7.8980    3.3030   -5.1720 oh        1 MOL     -0.617828
    135 H56        -5.1820    3.0130   -0.2740 hn        1 MOL      0.069390
    136 H57        -6.4360    2.3070    2.2020 h1        1 MOL      0.083346
    137 H58        -7.1500    4.0470    0.7760 hc        1 MOL     -0.008610
    138 H59        -8.5060    3.1270    1.0860 hc        1 MOL     -0.008610
    139 H60        -9.0950    1.5110   -1.1840 ha        1 MOL      0.143060
    140 H61        -6.2750    4.8330   -1.1930 ha        1 MOL      0.143060
    141 H62        -9.2270    1.7130   -3.7150 ha        1 MOL      0.140510
    142 H63        -6.4790    4.9420   -3.4900 ha        1 MOL      0.140510
    143 H64        -8.6900    3.0130   -5.6230 ho        1 MOL      0.454004
    144 N13        -6.4050   -0.1560    0.0440 n         1 MOL     -0.111981
    145 C48        -6.6780   -1.6270   -0.0400 c3        1 MOL     -0.203822
    146 C49        -5.7920   -2.5160    0.8530 c         1 MOL      0.438304
    147 O21        -6.1480   -3.5460    1.3190 o         1 MOL     -0.533357
    148 C50        -6.7090   -2.1230   -1.5080 c3        1 MOL     -0.135191
    149 C51        -7.7530   -1.3830   -2.4180 c3        1 MOL     -0.289736
    150 C52        -7.6890   -1.9280   -3.7650 c         1 MOL      0.754019
    151 O22        -7.0520   -1.3330   -4.6490 o         1 MOL     -0.746449
    152 O23        -8.2220   -3.0460   -4.0650 o         1 MOL     -0.746449
    153 H65        -5.8290    0.3460   -0.6290 hn        1 MOL      0.128664
    154 H66        -7.6900   -1.7860    0.3300 h1        1 MOL      0.145443
    155 H67        -6.8440   -3.2020   -1.5360 hc        1 MOL      0.109666
    156 H68        -5.7560   -1.8230   -1.9550 hc        1 MOL      0.109666
    157 H69        -7.5100   -0.3250   -2.3250 hc        1 MOL      0.070218
    158 H70        -8.7860   -1.4210   -2.0560 hc        1 MOL      0.070218
    159 N14        -4.6410   -2.0050    1.1820 n         1 MOL     -0.105554
    160 C53        -3.6790   -2.5310    2.1930 c3        1 MOL     -0.210155
    161 C54        -4.1930   -2.1240    3.5910 c         1 MOL      0.494303
    162 O24        -3.9740   -2.8870    4.5290 o         1 MOL     -0.570376
    163 C55        -2.3070   -1.9360    1.8820 c3        1 MOL      0.141817
    164 C56        -1.7620   -2.2160    0.4800 c3        1 MOL     -0.508508
    165 C57        -0.3600   -1.6460    0.3190 c         1 MOL      0.980408
    166 O25        -0.0620   -0.5750    0.8500 o         1 MOL     -0.790303
    167 O26         0.5260   -2.0480   -0.4500 o         1 MOL     -0.790303
    168 H71        -4.4360   -1.1480    0.6980 hn        1 MOL      0.098682
    169 H72        -3.5930   -3.6060    2.0310 h1        1 MOL      0.138175
    170 H73        -1.6620   -2.4800    2.5710 hc        1 MOL      0.037143
    171 H74        -2.2230   -0.8840    2.1250 hc        1 MOL      0.037143
    172 H75        -2.2860   -1.7150   -0.3340 hc        1 MOL      0.142514
    173 H76        -1.8180   -3.2880    0.2760 hc        1 MOL      0.142514
    174 N15        -4.8890   -0.9950    3.7580 n         1 MOL     -0.091715
    175 C58        -5.1640   -0.3660    5.0450 c3        1 MOL     -0.138758
    176 H77        -4.2420    0.0520    5.4500 h1        1 MOL      0.060283
    177 H78        -5.8950    0.4310    4.9110 h1        1 MOL      0.060283
    178 H79        -5.5590   -1.1090    5.7370 h1        1 MOL      0.060283
    179 H80        -4.9760   -0.4270    2.9250 hn        1 MOL      0.051749
    180 Ca1         2.3820   -0.0960   -0.0010 Ca        1 MOL      1.746749
    181 O27         5.1430    0.2940    1.3580 oh        1 MOL     -0.858217
    182 H81         5.3270   -0.6140    1.1350 ho        1 MOL      0.406819
    183 H82         5.9160    0.5860    1.8540 ho        1 MOL      0.406819
    184 O28         2.4000   -0.3380    2.6470 oh        1 MOL     -0.858217
    185 H83         3.1110   -0.3100    3.2980 ho        1 MOL      0.406819
    186 H84         1.6920   -0.8020    3.0870 ho        1 MOL      0.406819
    187 O29         0.9230    0.8760   -2.0350 oh        1 MOL     -0.858217
    188 H85         1.4840    1.5950   -2.3310 ho        1 MOL      0.406819
    189 H86         0.7630    0.3550   -2.8220 ho        1 MOL      0.406819
@<TRIPOS>BOND
     1    1    2 1   
     2    1    4 1   
     3    1    5 1   
     4    1    6 1   
     5    2    3 2   
     6    2    7 1   
     7    7    8 1   
     8    7   15 1   
     9    8    9 1   
    10    8   11 1   
    11    8   16 1   
    12    9   10 2   
    13    9   19 1   
    14   11   12 1   
    15   11   17 1   
    16   11   18 1   
    17   12   13 1   
    18   12   14 1   
    19   19   20 1   
    20   19   27 1   
    21   20   21 1   
    22   20   23 1   
    23   20   28 1   
    24   21   22 2   
    25   21   38 1   
    26   23   24 1   
    27   23   25 1   
    28   23   29 1   
    29   24   26 1   
    30   24   30 1   
    31   24   31 1   
    32   25   32 1   
    33   25   33 1   
    34   25   34 1   
    35   26   35 1   
    36   26   36 1   
    37   26   37 1   
    38   38   39 1   
    39   38   46 1   
    40   39   40 1   
    41   39   42 1   
    42   39   47 1   
    43   40   41 2   
    44   40   50 1   
    45   42   43 1   
    46   42   48 1   
    47   42   49 1   
    48   43   44 1   
    49   43   45 1   
    50   50   51 1   
    51   50   54 1   
    52   51   52 1   
    53   51   55 1   
    54   51   56 1   
    55   52   53 2   
    56   52   57 1   
    57   57   58 1   
    58   57   65 1   
    59   58   59 1   
    60   58   61 1   
    61   58   66 1   
    62   59   60 2   
    63   59   69 1   
    64   61   62 1   
    65   61   67 1   
    66   61   68 1   
    67   62   63 1   
    68   62   64 1   
    69   69   70 1   
    70   69   73 1   
    71   70   71 1   
    72   70   74 1   
    73   70   75 1   
    74   71   72 2   
    75   71   76 1   
    76   76   77 1   
    77   76   85 1   
    78   77   78 1   
    79   77   80 1   
    80   77   86 1   
    81   78   79 2   
    82   78   93 1   
    83   80   81 1   
    84   80   87 1   
    85   80   88 1   
    86   81   82 1   
    87   81   89 1   
    88   81   90 1   
    89   82   83 1   
    90   82   84 2   
    91   83   91 1   
    92   83   92 1   
    93   93   94 1   
    94   93  100 1   
    95   94   95 1   
    96   94   97 1   
    97   94  101 1   
    98   95   96 2   
    99   95  109 1   
   100   97   98 1   
   101   97   99 1   
   102   97  102 1   
   103   98  103 1   
   104   98  104 1   
   105   98  105 1   
   106   99  106 1   
   107   99  107 1   
   108   99  108 1   
   109  109  110 1   
   110  109  117 1   
   111  110  111 1   
   112  110  113 1   
   113  110  118 1   
   114  111  112 2   
   115  111  123 1   
   116  113  114 1   
   117  113  119 1   
   118  113  120 1   
   119  114  115 1   
   120  114  116 2   
   121  115  121 1   
   122  115  122 1   
   123  123  124 1   
   124  123  135 1   
   125  124  125 1   
   126  124  127 1   
   127  124  136 1   
   128  125  126 2   
   129  125  144 1   
   130  127  128 1   
   131  127  137 1   
   132  127  138 1   
   133  128  129 ar  
   134  128  130 ar  
   135  129  131 ar  
   136  129  139 1   
   137  130  132 ar  
   138  130  140 1   
   139  131  133 ar  
   140  131  141 1   
   141  132  133 ar  
   142  132  142 1   
   143  133  134 1   
   144  134  143 1   
   145  144  145 1   
   146  144  153 1   
   147  145  146 1   
   148  145  148 1   
   149  145  154 1   
   150  146  147 2   
   151  146  159 1   
   152  148  149 1   
   153  148  155 1   
   154  148  156 1   
   155  149  150 1   
   156  149  157 1   
   157  149  158 1   
   158  150  151 1   
   159  150  152 1   
   160  159  160 1   
   161  159  168 1   
   162  160  161 1   
   163  160  163 1   
   164  160  169 1   
   165  161  162 2   
   166  161  174 1   
   167  163  164 1   
   168  163  170 1   
   169  163  171 1   
   170  164  165 1   
   171  164  172 1   
   172  164  173 1   
   173  165  166 1   
   174  165  167 1   
   175  174  175 1   
   176  174  179 1   
   177  175  176 1   
   178  175  177 1   
   179  175  178 1   
   180  181  182 1   
   181  181  183 1   
   182  184  185 1   
   183  184  186 1   
   184  187  188 1   
   185  187  189 1   
@<TRIPOS>SUBSTRUCTURE
     1 MOL         1 TEMP              0 ****  ****    0 ROOT
