@<TRIPOS>MOLECULE
MOL
  189   185     1     0     0
SMALL
resp


@<TRIPOS>ATOM
      1 C1         -0.4400    3.0760   -5.0260 c3        1 MOL     -0.219458
      2 C2          0.1440    2.7150   -3.6540 c         1 MOL      0.767848
      3 O1         -0.5190    2.8060   -2.6430 o         1 MOL     -0.585872
      4 H1         -1.2700    3.7690   -4.8950 hc        1 MOL      0.049873
      5 H2          0.3310    3.5440   -5.6380 hc        1 MOL      0.049873
      6 H3         -0.7960    2.1710   -5.5190 hc        1 MOL      0.049873
      7 N1          1.4140    2.3410   -3.5890 n         1 MOL     -0.755278
      8 C3          2.1160    1.9000   -2.3560 c3        1 MOL      0.482966
      9 C4          2.5960    3.0370   -1.4750 c         1 MOL      0.336843
     10 O2          3.7690    3.3170   -1.3960 o         1 MOL     -0.452520
     11 C5          3.1740    0.8520   -2.6880 c3        1 MOL     -0.329829
     12 C6          3.8300    0.2500   -1.4310 c         1 MOL      0.772006
     13 O3          3.1140    0.2970   -0.3880 o         1 MOL     -0.664758
     14 O4          4.9560   -0.2650   -1.5320 o         1 MOL     -0.664758
     15 H4          1.8880    2.2870   -4.4780 hn        1 MOL      0.339868
     16 H5          1.3980    1.3480   -1.7450 h1        1 MOL     -0.066120
     17 H6          3.9720    1.2300   -3.3250 hc        1 MOL      0.053058
     18 H7          2.6520    0.0120   -3.1390 hc        1 MOL      0.053058
     19 N2          1.5930    3.6220   -0.7970 n         1 MOL     -0.395596
     20 C7          1.7380    4.9530   -0.1920 c3        1 MOL     -0.026035
     21 C8          2.4500    5.0390    1.2050 c         1 MOL      0.584123
     22 O5          2.5740    6.1430    1.6620 o         1 MOL     -0.576329
     23 C9          0.4410    5.6830   -0.2500 c3        1 MOL     -0.072332
     24 C10         0.1010    6.2210   -1.6830 c3        1 MOL      0.419367
     25 C11        -1.0940    7.1880   -1.7080 c3        1 MOL     -0.220817
     26 C12        -1.6210    7.2120   -3.1740 c3        1 MOL      0.163816
     27 N3         -0.9170    8.0780   -4.1190 n4        1 MOL     -0.572051
     28 H8          0.6770    3.2140   -0.8400 hn        1 MOL      0.348250
     29 H9          2.4250    5.5480   -0.7960 h1        1 MOL      0.090701
     30 H10         0.5360    6.6040    0.3190 hc        1 MOL      0.018842
     31 H11        -0.4480    5.1590    0.0910 hc        1 MOL      0.018842
     32 H12        -0.0560    5.4140   -2.3920 hc        1 MOL     -0.131640
     33 H13         0.9360    6.8550   -1.9860 hc        1 MOL     -0.131640
     34 H14        -0.7710    8.1780   -1.3690 hc        1 MOL      0.072714
     35 H15        -1.8730    6.7490   -1.0890 hc        1 MOL      0.072714
     36 H16        -2.6590    7.5390   -3.1760 hx        1 MOL      0.063475
     37 H17        -1.5600    6.1680   -3.4760 hx        1 MOL      0.063475
     38 H18        -0.7740    7.5540   -4.9720 hn        1 MOL      0.381522
     39 H19        -1.4370    8.9390   -4.2460 hn        1 MOL      0.381522
     40 H20         0.0220    8.2810   -3.8100 hn        1 MOL      0.381522
     41 N4          3.0980    3.9730    1.6280 n         1 MOL     -0.301112
     42 C13         4.1000    3.9390    2.7250 c3        1 MOL      0.042354
     43 C14         5.3850    3.2050    2.2820 c         1 MOL      0.326371
     44 O6          6.3060    2.9080    3.1190 o         1 MOL     -0.502435
     45 C15         3.3330    3.2660    3.9380 c3        1 MOL     -0.209815
     46 C16         2.6720    1.8990    3.6700 c         1 MOL      0.818416
     47 O7          3.1000    1.0320    2.8930 o         1 MOL     -0.687215
     48 O8          1.6690    1.5910    4.3320 o         1 MOL     -0.687215
     49 H21         3.0380    3.1190    1.1000 hn        1 MOL      0.140128
     50 H22         4.3810    4.9620    2.9910 h1        1 MOL      0.104097
     51 H23         2.5180    3.9190    4.2550 hc        1 MOL      0.053712
     52 H24         3.9940    3.1740    4.8020 hc        1 MOL      0.053712
     53 N5          5.4990    2.8470    0.9580 n         1 MOL     -0.086768
     54 C17         6.6650    2.2360    0.3350 c3        1 MOL     -0.150419
     55 C18         7.2100    0.9170    0.8460 c         1 MOL      0.527917
     56 O9          8.4020    0.7020    0.6330 o         1 MOL     -0.590071
     57 H25         4.7160    2.9500    0.3370 hn        1 MOL      0.048983
     58 H26         7.4000    3.0390    0.2850 h1        1 MOL      0.091037
     59 H27         6.3210    1.9360   -0.6570 h1        1 MOL      0.091037
     60 N6          6.3860    0.0490    1.3970 n         1 MOL     -0.198426
     61 C19         6.7950   -1.2580    2.0090 c3        1 MOL     -0.188156
     62 C20         7.2080   -2.3380    0.9700 c         1 MOL      0.456658
     63 O10         7.8610   -3.2970    1.2440 o         1 MOL     -0.549838
     64 C21         5.7630   -1.8950    2.9860 c3        1 MOL     -0.078617
     65 C22         4.3550   -1.9560    2.5830 c         1 MOL      0.634703
     66 O11         3.4190   -1.8760    3.3690 o         1 MOL     -0.696888
     67 O12         4.1670   -2.0650    1.3430 o         1 MOL     -0.696888
     68 H28         5.3940    0.2470    1.3520 hn        1 MOL      0.224002
     69 H29         7.6600   -1.0390    2.6330 h1        1 MOL      0.135474
     70 H30         5.8200   -1.3060    3.9080 hc        1 MOL      0.049985
     71 H31         6.1170   -2.8350    3.4140 hc        1 MOL      0.049985
     72 N7          6.7700   -2.1010   -0.2450 n         1 MOL     -0.108507
     73 C23         6.8530   -2.9670   -1.4170 c3        1 MOL     -0.178714
     74 C24         5.6340   -3.8140   -1.7140 c         1 MOL      0.560863
     75 O13         5.6660   -4.8290   -2.4760 o         1 MOL     -0.617380
     76 H32         6.2210   -1.2700   -0.3910 hn        1 MOL      0.205221
     77 H33         7.7910   -3.5100   -1.3500 h1        1 MOL      0.092713
     78 H34         6.9480   -2.2460   -2.2270 h1        1 MOL      0.092713
     79 N8          4.4380   -3.5770   -1.1460 n         1 MOL     -0.075393
     80 C25         3.0960   -4.3000   -1.3450 c3        1 MOL     -0.519538
     81 C26         1.8380   -3.3890   -1.2570 c         1 MOL      0.928434
     82 O14         1.7710   -2.5730   -0.3280 o         1 MOL     -0.795116
     83 C27         2.9940   -5.3780   -0.2970 c3        1 MOL      0.690843
     84 C28         3.8870   -6.5300   -0.6000 c3        1 MOL     -0.456633
     85 O15         3.1190   -4.9420    1.0250 oh        1 MOL     -0.729208
     86 H35         4.5200   -2.8400   -0.4620 hn        1 MOL      0.067343
     87 H36         3.0850   -4.7210   -2.3580 h1        1 MOL      0.136364
     88 H37         2.0070   -5.8360   -0.4060 h1        1 MOL     -0.039807
     89 H38         3.8060   -4.2660    1.0340 ho        1 MOL      0.455447
     90 H39         4.7630   -6.4430    0.0420 hc        1 MOL      0.108464
     91 H40         3.3450   -7.4700   -0.5240 hc        1 MOL      0.108464
     92 H41         4.1810   -6.6060   -1.6460 hc        1 MOL      0.108464
     93 N9          0.8370   -3.6780   -2.1070 n         1 MOL     -0.663221
     94 C29        -0.3500   -2.8990   -2.3140 c3        1 MOL      0.025095
     95 C30        -1.4830   -3.6390   -1.5560 c         1 MOL      0.511199
     96 O16        -1.7380   -4.7870   -1.8760 o         1 MOL     -0.552795
     97 C31        -0.5900   -2.7200   -3.8000 c3        1 MOL      0.228973
     98 C32         0.4100   -1.7190   -4.4210 c3        1 MOL      0.198012
     99 C33        -2.0130   -2.3230   -3.9840 c3        1 MOL     -0.351113
    100 C34         0.4070   -1.8480   -5.9350 c3        1 MOL     -0.206022
    101 H42         0.9730   -4.4250   -2.7680 hn        1 MOL      0.317453
    102 H43        -0.1360   -1.9340   -1.8540 h1        1 MOL      0.085299
    103 H44        -0.3280   -3.6300   -4.3440 hc        1 MOL     -0.015773
    104 H45         1.3610   -1.9820   -3.9770 hc        1 MOL     -0.032579
    105 H46         0.1940   -0.7060   -4.0930 hc        1 MOL     -0.032579
    106 H47        -2.0250   -1.3140   -3.5780 hc        1 MOL      0.062293
    107 H48        -2.2830   -2.2850   -5.0440 hc        1 MOL      0.062293
    108 H49        -2.7120   -2.9830   -3.4760 hc        1 MOL      0.062293
    109 H50         1.0590   -1.0940   -6.3550 hc        1 MOL      0.039513
    110 H51         0.8970   -2.8160   -6.1200 hc        1 MOL      0.039513
    111 H52        -0.5780   -1.8990   -6.4130 hc        1 MOL      0.039513
    112 N10        -2.1920   -2.9000   -0.6830 n         1 MOL     -0.066244
    113 C35        -3.4020   -3.3530    0.0240 c3        1 MOL     -0.267849
    114 C36        -4.7000   -2.8170   -0.7100 c         1 MOL      0.495840
    115 O17        -4.5990   -1.9390   -1.5270 o         1 MOL     -0.404692
    116 C37        -3.4130   -2.9110    1.5130 c3        1 MOL      0.313021
    117 C38        -2.4750   -3.7620    2.3150 c3        1 MOL     -0.345987
    118 O18        -3.1150   -1.5730    1.6490 oh        1 MOL     -0.607246
    119 H53        -1.8990   -1.9440   -0.5830 hn        1 MOL      0.260669
    120 H54        -3.4480   -4.4440    0.0770 h1        1 MOL      0.109391
    121 H55        -4.4320   -2.9550    1.8820 h1        1 MOL      0.015639
    122 H56        -2.2030   -1.3910    1.3990 ho        1 MOL      0.374941
    123 H57        -2.1850   -3.3470    3.2790 hc        1 MOL      0.091519
    124 H58        -2.8840   -4.7680    2.4580 hc        1 MOL      0.091519
    125 H59        -1.5910   -3.8760    1.6900 hc        1 MOL      0.091519
    126 N11        -5.8550   -3.2700   -0.2000 n         1 MOL     -0.424227
    127 C39        -7.1830   -2.7150   -0.5460 c3        1 MOL     -0.073709
    128 C40        -7.2910   -1.2340   -0.3040 c         1 MOL      0.397792
    129 O19        -7.7350   -0.5640   -1.1960 o         1 MOL     -0.480106
    130 C41        -8.3460   -3.3270    0.2580 c3        1 MOL      0.307306
    131 C42        -8.6800   -4.7700   -0.0350 c3        1 MOL     -0.364678
    132 O20        -8.0460   -3.2700    1.6250 oh        1 MOL     -0.689493
    133 H60        -5.7830   -3.8720    0.6090 hn        1 MOL      0.299273
    134 H61        -7.2820   -2.9060   -1.6120 h1        1 MOL      0.140345
    135 H62        -9.2060   -2.7070    0.0090 h1        1 MOL      0.045071
    136 H63        -8.7080   -3.7770    2.0870 ho        1 MOL      0.433477
    137 H64        -9.4820   -5.0300    0.6560 hc        1 MOL      0.103638
    138 H65        -9.1040   -4.6780   -1.0290 hc        1 MOL      0.103638
    139 H66        -7.8190   -5.4300    0.0620 hc        1 MOL      0.103638
    140 N12        -6.8820   -0.7040    0.8870 n         1 MOL     -0.260328
    141 C43        -6.9180    0.6800    1.2590 c3        1 MOL     -0.098434
    142 C44        -6.0620    1.5430    0.3460 c         1 MOL      0.393574
    143 O21        -6.4440    2.7270    0.2100 o         1 MOL     -0.530244
    144 C45        -6.5310    0.8020    2.7340 c3        1 MOL     -0.040892
    145 C46        -7.0660    2.1500    3.3210 c3        1 MOL      0.013883
    146 C47        -6.7940    2.3290    4.8450 c3        1 MOL     -0.016109
    147 C48        -7.1520    1.0910    5.7140 c3        1 MOL      0.077552
    148 N13        -6.9920    1.5000    7.0920 n4        1 MOL     -0.228774
    149 H67        -6.5640   -1.3820    1.5700 hn        1 MOL      0.259261
    150 H68        -7.9400    1.0320    1.0840 h1        1 MOL      0.114110
    151 H69        -5.4490    0.6650    2.7130 hc        1 MOL      0.009089
    152 H70        -7.0270    0.0260    3.3170 hc        1 MOL      0.009089
    153 H71        -8.1220    2.0870    3.0560 hc        1 MOL      0.027098
    154 H72        -6.7270    2.9900    2.7280 hc        1 MOL      0.027098
    155 H73        -7.5070    3.1250    5.0490 hc        1 MOL      0.032065
    156 H74        -5.7870    2.6560    5.0850 hc        1 MOL      0.032065
    157 H75        -6.4640    0.2670    5.5350 hx        1 MOL      0.069243
    158 H76        -8.1620    0.7120    5.6190 hx        1 MOL      0.069243
    159 H77        -7.2140    0.7620    7.7460 hn        1 MOL      0.239289
    160 H78        -6.0760    1.7960    7.4190 hn        1 MOL      0.239289
    161 H79        -7.5610    2.2890    7.3430 hn        1 MOL      0.239289
    162 N14        -4.9030    1.0530   -0.0720 n         1 MOL     -0.010796
    163 C49        -4.0350    1.7560   -0.9520 c3        1 MOL     -0.265632
    164 C50        -4.4530    1.6520   -2.4070 c         1 MOL      0.573688
    165 O22        -4.2900    2.6330   -3.1140 o         1 MOL     -0.592210
    166 C51        -2.6790    1.0550   -0.8760 c3        1 MOL      0.299602
    167 C52        -2.0860    1.4050    0.5490 c3        1 MOL     -0.279332
    168 C53        -0.7580    0.7050    0.6490 c         1 MOL      0.881452
    169 O23         0.3350    1.3270    0.9500 o         1 MOL     -0.825416
    170 O24        -0.6560   -0.5520    0.5670 o         1 MOL     -0.825416
    171 H80        -4.6460    0.1030    0.1440 hn        1 MOL      0.200213
    172 H81        -3.9830    2.8030   -0.6770 h1        1 MOL      0.138667
    173 H82        -2.0520    1.3430   -1.7190 hc        1 MOL     -0.104113
    174 H83        -2.8340   -0.0150   -0.8020 hc        1 MOL     -0.104113
    175 H84        -2.7530    1.1400    1.3720 hc        1 MOL      0.055173
    176 H85        -1.9370    2.4920    0.6090 hc        1 MOL      0.055173
    177 N15        -5.1200    0.5880   -2.8800 n         1 MOL     -0.205051
    178 C54        -5.8970    0.6780   -4.0710 c3        1 MOL     -0.279646
    179 H86        -6.9490    0.5180   -3.8310 h1        1 MOL      0.108987
    180 H87        -5.7720    1.6670   -4.5130 h1        1 MOL      0.108987
    181 H88        -5.5670   -0.0820   -4.7800 h1        1 MOL      0.108987
    182 H89        -5.2750   -0.2020   -2.2610 hn        1 MOL      0.185802
    183 Ca1         1.7810   -0.6770    1.3940 Ca        1 MOL      1.820319
    184 O25         0.1560   -0.8500    3.5340 oh        1 MOL     -0.810248
    185 H90        -0.4110   -0.1520    3.8800 ho        1 MOL      0.404120
    186 H91         0.0820   -1.5630    4.1770 ho        1 MOL      0.404120
    187 O26         1.2240   -3.3230    2.3800 oh        1 MOL     -0.810248
    188 H92         1.8040   -3.6910    1.7150 ho        1 MOL      0.404120
    189 H93         1.6170   -3.5920    3.2140 ho        1 MOL      0.404120
@<TRIPOS>BOND
     1    1    2 1   
     2    1    4 1   
     3    1    5 1   
     4    1    6 1   
     5    2    3 2   
     6    2    7 1   
     7    7    8 1   
     8    7   15 1   
     9    8    9 1   
    10    8   11 1   
    11    8   16 1   
    12    9   10 2   
    13    9   19 1   
    14   11   12 1   
    15   11   17 1   
    16   11   18 1   
    17   12   13 1   
    18   12   14 1   
    19   19   20 1   
    20   19   28 1   
    21   20   21 1   
    22   20   23 1   
    23   20   29 1   
    24   21   22 2   
    25   21   41 1   
    26   23   24 1   
    27   23   30 1   
    28   23   31 1   
    29   24   25 1   
    30   24   32 1   
    31   24   33 1   
    32   25   26 1   
    33   25   34 1   
    34   25   35 1   
    35   26   27 1   
    36   26   36 1   
    37   26   37 1   
    38   27   38 1   
    39   27   39 1   
    40   27   40 1   
    41   41   42 1   
    42   41   49 1   
    43   42   43 1   
    44   42   45 1   
    45   42   50 1   
    46   43   44 2   
    47   43   53 1   
    48   45   46 1   
    49   45   51 1   
    50   45   52 1   
    51   46   47 1   
    52   46   48 1   
    53   53   54 1   
    54   53   57 1   
    55   54   55 1   
    56   54   58 1   
    57   54   59 1   
    58   55   56 2   
    59   55   60 1   
    60   60   61 1   
    61   60   68 1   
    62   61   62 1   
    63   61   64 1   
    64   61   69 1   
    65   62   63 2   
    66   62   72 1   
    67   64   65 1   
    68   64   70 1   
    69   64   71 1   
    70   65   66 1   
    71   65   67 1   
    72   72   73 1   
    73   72   76 1   
    74   73   74 1   
    75   73   77 1   
    76   73   78 1   
    77   74   75 2   
    78   74   79 1   
    79   79   80 1   
    80   79   86 1   
    81   80   81 1   
    82   80   83 1   
    83   80   87 1   
    84   81   82 2   
    85   81   93 1   
    86   83   84 1   
    87   83   85 1   
    88   83   88 1   
    89   84   90 1   
    90   84   91 1   
    91   84   92 1   
    92   85   89 1   
    93   93   94 1   
    94   93  101 1   
    95   94   95 1   
    96   94   97 1   
    97   94  102 1   
    98   95   96 2   
    99   95  112 1   
   100   97   98 1   
   101   97   99 1   
   102   97  103 1   
   103   98  100 1   
   104   98  104 1   
   105   98  105 1   
   106   99  106 1   
   107   99  107 1   
   108   99  108 1   
   109  100  109 1   
   110  100  110 1   
   111  100  111 1   
   112  112  113 1   
   113  112  119 1   
   114  113  114 1   
   115  113  116 1   
   116  113  120 1   
   117  114  115 2   
   118  114  126 1   
   119  116  117 1   
   120  116  118 1   
   121  116  121 1   
   122  117  123 1   
   123  117  124 1   
   124  117  125 1   
   125  118  122 1   
   126  126  127 1   
   127  126  133 1   
   128  127  128 1   
   129  127  130 1   
   130  127  134 1   
   131  128  129 2   
   132  128  140 1   
   133  130  131 1   
   134  130  132 1   
   135  130  135 1   
   136  131  137 1   
   137  131  138 1   
   138  131  139 1   
   139  132  136 1   
   140  140  141 1   
   141  140  149 1   
   142  141  142 1   
   143  141  144 1   
   144  141  150 1   
   145  142  143 2   
   146  142  162 1   
   147  144  145 1   
   148  144  151 1   
   149  144  152 1   
   150  145  146 1   
   151  145  153 1   
   152  145  154 1   
   153  146  147 1   
   154  146  155 1   
   155  146  156 1   
   156  147  148 1   
   157  147  157 1   
   158  147  158 1   
   159  148  159 1   
   160  148  160 1   
   161  148  161 1   
   162  162  163 1   
   163  162  171 1   
   164  163  164 1   
   165  163  166 1   
   166  163  172 1   
   167  164  165 2   
   168  164  177 1   
   169  166  167 1   
   170  166  173 1   
   171  166  174 1   
   172  167  168 1   
   173  167  175 1   
   174  167  176 1   
   175  168  169 1   
   176  168  170 1   
   177  177  178 1   
   178  177  182 1   
   179  178  179 1   
   180  178  180 1   
   181  178  181 1   
   182  184  185 1   
   183  184  186 1   
   184  187  188 1   
   185  187  189 1   
@<TRIPOS>SUBSTRUCTURE
     1 MOL         1 TEMP              0 ****  ****    0 ROOT
