@<TRIPOS>MOLECULE
MOL
  182   178     1     0     0
SMALL
resp


@<TRIPOS>ATOM
      1 C1          1.8230    2.4730    5.5060 c3        1 MOL     -0.422861
      2 C2          1.1680    2.5940    4.1180 c         1 MOL      0.661943
      3 O1          1.8770    2.8280    3.1810 o         1 MOL     -0.554626
      4 H1          1.9360    3.4650    5.9420 hc        1 MOL      0.106957
      5 H2          1.1930    1.8620    6.1530 hc        1 MOL      0.106957
      6 H3          2.8030    2.0060    5.4070 hc        1 MOL      0.106957
      7 N1         -0.1120    2.3630    4.0370 n         1 MOL     -0.462899
      8 C3         -0.9510    2.2040    2.8130 c3        1 MOL      0.037417
      9 C4         -1.3750    3.5490    2.1660 c         1 MOL      0.427578
     10 O2         -2.3250    4.2600    2.5820 o         1 MOL     -0.501185
     11 C5         -2.2120    1.4200    3.2450 c3        1 MOL     -0.067976
     12 C6         -3.1220    1.1300    2.0250 c         1 MOL      0.549014
     13 O3         -2.5670    1.0410    0.8560 o         1 MOL     -0.606704
     14 O4         -4.3300    0.8660    2.2500 o         1 MOL     -0.606704
     15 H4         -0.6160    2.2880    4.9080 hn        1 MOL      0.276113
     16 H5         -0.3120    1.6190    2.1490 h1        1 MOL      0.066471
     17 H6         -2.8730    1.9660    3.9190 hc        1 MOL      0.039366
     18 H7         -1.9150    0.4940    3.7240 hc        1 MOL      0.039366
     19 N2         -0.5650    4.0730    1.2070 n         1 MOL     -0.352993
     20 C7         -0.5520    5.4480    0.7880 c3        1 MOL      0.311927
     21 C8         -1.6860    5.7900   -0.2500 c         1 MOL      0.302387
     22 O5         -2.4570    6.7940   -0.1000 o         1 MOL     -0.537603
     23 C9          0.8900    5.7640    0.3320 c3        1 MOL     -0.090516
     24 C10         0.9740    7.2440   -0.0160 c3        1 MOL      0.036281
     25 C11         2.4590    7.8600   -0.1730 c3        1 MOL     -0.066585
     26 C12         2.5930    8.9630   -1.1930 c3        1 MOL      0.205741
     27 N3          3.9330    9.5930   -1.0200 n4        1 MOL     -0.577026
     28 H8          0.1670    3.4500    0.8930 hn        1 MOL      0.220994
     29 H9         -0.7110    6.1480    1.6050 h1        1 MOL      0.031031
     30 H10         1.1920    5.1880   -0.5340 hc        1 MOL      0.038606
     31 H11         1.5020    5.6970    1.2320 hc        1 MOL      0.038606
     32 H12         0.3490    7.8100    0.6670 hc        1 MOL     -0.001726
     33 H13         0.4010    7.2180   -0.9450 hc        1 MOL     -0.001726
     34 H14         3.1840    7.0950   -0.4160 hc        1 MOL      0.040347
     35 H15         2.6680    8.4090    0.7360 hc        1 MOL      0.040347
     36 H16         1.8700    9.7630   -1.0140 hx        1 MOL      0.040910
     37 H17         2.4570    8.5730   -2.1920 hx        1 MOL      0.040910
     38 H18         4.6000    8.8790   -1.2620 hn        1 MOL      0.382014
     39 H19         3.9840   10.3620   -1.6600 hn        1 MOL      0.382014
     40 H20         4.0250   10.0100   -0.1060 hn        1 MOL      0.382014
     41 N4         -1.8910    4.9050   -1.2350 n         1 MOL     -0.281806
     42 C13        -3.0670    4.9790   -2.1070 c3        1 MOL      0.123057
     43 C14        -4.3060    4.4690   -1.3710 c         1 MOL      0.242125
     44 O6         -5.4280    4.4730   -1.9780 o         1 MOL     -0.528244
     45 C15        -2.9400    4.1610   -3.4210 c3        1 MOL     -0.460644
     46 C16        -2.4870    2.6720   -3.2300 c         1 MOL      0.903248
     47 O7         -2.3220    1.9420   -4.2160 o         1 MOL     -0.738184
     48 O8         -2.1030    2.2630   -2.1110 o         1 MOL     -0.738184
     49 H21        -1.3150    4.0760   -1.3100 hn        1 MOL      0.217356
     50 H22        -3.2480    6.0180   -2.3760 h1        1 MOL      0.101093
     51 H23        -2.1580    4.5830   -4.0500 hc        1 MOL      0.122273
     52 H24        -3.8500    4.0370   -4.0010 hc        1 MOL      0.122273
     53 N5         -4.1390    3.8980   -0.1820 n         1 MOL      0.423373
     54 C17        -5.3000    3.7740    0.7170 c3        1 MOL     -0.336783
     55 C18        -6.1380    2.5410    0.3200 c         1 MOL      0.525139
     56 O9         -7.3770    2.5770    0.5210 o         1 MOL     -0.568783
     57 H25        -3.2090    3.8800    0.1990 hn        1 MOL     -0.149630
     58 H26        -5.9440    4.6130    0.4580 h1        1 MOL      0.139931
     59 H27        -5.0970    3.6130    1.7780 h1        1 MOL      0.139931
     60 N6         -5.6420    1.5740   -0.4680 n         1 MOL     -0.165913
     61 C19        -6.2680    0.4800   -1.1700 c3        1 MOL     -0.097854
     62 C20        -6.3540   -0.8390   -0.2860 c         1 MOL      0.309860
     63 O10        -7.1210   -1.7190   -0.7660 o         1 MOL     -0.494560
     64 C21        -5.5050    0.1960   -2.4630 c3        1 MOL     -0.119307
     65 C22        -4.4790   -0.9190   -2.3870 c         1 MOL      0.508875
     66 N7         -4.7110   -1.9510   -3.1570 n         1 MOL     -0.785633
     67 O11        -3.5990   -0.7950   -1.5670 o         1 MOL     -0.533250
     68 H28        -4.6440    1.5850   -0.6240 hn        1 MOL      0.103069
     69 H29        -7.2880    0.7330   -1.4800 h1        1 MOL      0.134177
     70 H30        -5.0700    1.1400   -2.7950 hc        1 MOL      0.083623
     71 H31        -6.2240   -0.1350   -3.2160 hc        1 MOL      0.083623
     72 H32        -5.5730   -2.2540   -3.5830 hn        1 MOL      0.389026
     73 H33        -4.0290   -2.7060   -3.1220 hn        1 MOL      0.389026
     74 N8         -5.8080   -0.9590    0.9760 n         1 MOL     -0.032332
     75 C23        -5.8750   -2.0770    1.9090 c3        1 MOL     -0.410690
     76 C24        -4.7640   -3.1210    1.8430 c         1 MOL      0.630972
     77 O12        -4.7690   -4.0970    2.6430 o         1 MOL     -0.590985
     78 H34        -5.2310   -0.1950    1.3200 hn        1 MOL      0.178788
     79 H35        -6.7960   -2.6310    1.7630 h1        1 MOL      0.158603
     80 H36        -5.8030   -1.6290    2.9040 h1        1 MOL      0.158603
     81 N9         -3.7400   -2.8640    1.0270 n         1 MOL     -0.196210
     82 C25        -2.5200   -3.6860    0.8760 c3        1 MOL      0.103536
     83 C26        -1.2280   -2.8870    1.0830 c         1 MOL      0.290196
     84 O13        -1.2100   -1.6890    0.8880 o         1 MOL     -0.520161
     85 C27        -2.5430   -4.3730   -0.5110 c3        1 MOL      0.151770
     86 C28        -3.6710   -5.4810   -0.5600 ca        1 MOL     -0.186090
     87 C29        -4.9660   -5.1190   -1.0840 ca        1 MOL     -0.064421
     88 C30        -3.4340   -6.7630   -0.0950 ca        1 MOL     -0.064421
     89 C31        -6.0240   -6.0630   -1.1500 ca        1 MOL     -0.285220
     90 C32        -4.4130   -7.7750   -0.2460 ca        1 MOL     -0.285220
     91 C33        -5.6990   -7.3830   -0.7610 ca        1 MOL      0.340824
     92 O14        -6.7290   -8.2590   -0.8940 oh        1 MOL     -0.448447
     93 H37        -3.7550   -1.9760    0.5330 hn        1 MOL      0.190689
     94 H38        -2.6080   -4.4940    1.6050 h1        1 MOL      0.042700
     95 H39        -1.6240   -4.9170   -0.6930 hc        1 MOL     -0.042152
     96 H40        -2.5940   -3.5740   -1.2540 hc        1 MOL     -0.042152
     97 H41        -5.1890   -4.0910   -1.3310 ha        1 MOL      0.103468
     98 H42        -2.5070   -7.0530    0.3660 ha        1 MOL      0.103468
     99 H43        -7.0350   -5.8070   -1.4140 ha        1 MOL      0.162119
    100 H44        -4.1680   -8.7790    0.0750 ha        1 MOL      0.162119
    101 H45        -6.4470   -9.0550   -0.4320 ho        1 MOL      0.330210
    102 N10        -0.1720   -3.6060    1.4530 n         1 MOL     -0.342155
    103 C34         1.1470   -3.0890    1.6890 c3        1 MOL      0.035985
    104 C35         2.1800   -3.7760    0.8680 c         1 MOL      0.270326
    105 O15         2.4450   -5.0060    1.0330 o         1 MOL     -0.507708
    106 C36         1.6410   -3.0560    3.1210 c3        1 MOL      0.082733
    107 C37         0.6290   -2.3020    4.0140 c3        1 MOL      0.107640
    108 C38         3.0640   -2.3930    3.2280 c3        1 MOL     -0.044697
    109 C39         0.9700   -2.4850    5.5070 c3        1 MOL     -0.206026
    110 H46        -0.3290   -4.4760    1.9390 hn        1 MOL      0.270713
    111 H47         1.2080   -2.0430    1.3830 h1        1 MOL      0.131999
    112 H48         1.7780   -4.0580    3.5140 hc        1 MOL      0.006953
    113 H49        -0.3860   -2.6170    3.8140 hc        1 MOL     -0.008910
    114 H50         0.7980   -1.2570    3.7530 hc        1 MOL     -0.008910
    115 H51         3.4360   -2.3570    4.2470 hc        1 MOL      0.001711
    116 H52         3.7960   -2.9750    2.6750 hc        1 MOL      0.001711
    117 H53         3.0800   -1.4840    2.6310 hc        1 MOL      0.001711
    118 H54         0.9330   -3.5250    5.8160 hc        1 MOL      0.044634
    119 H55         1.9530   -2.0790    5.7280 hc        1 MOL      0.044634
    120 H56         0.2510   -1.8780    6.0750 hc        1 MOL      0.044634
    121 N11         2.7700   -3.0340   -0.1170 n         1 MOL     -0.082409
    122 C40         3.8030   -3.5750   -1.0010 c3        1 MOL     -0.013482
    123 C41         5.2380   -3.4880   -0.4980 c         1 MOL      0.493124
    124 O16         5.4820   -2.6810    0.3740 o         1 MOL     -0.344396
    125 C42         3.7580   -2.8380   -2.3780 c3        1 MOL     -0.041830
    126 O17         4.5470   -1.6810   -2.5190 oh        1 MOL     -0.403540
    127 H57         2.4530   -2.0860   -0.2900 hn        1 MOL      0.302595
    128 H58         3.6600   -4.6540   -1.1450 h1        1 MOL      0.051570
    129 H59         2.7190   -2.5560   -2.5270 h1        1 MOL      0.040544
    130 H60         4.0580   -3.5930   -3.1170 h1        1 MOL      0.040544
    131 H61         4.5540   -1.4360   -3.4450 ho        1 MOL      0.364035
    132 N12         6.2300   -4.2300   -1.0140 n         1 MOL     -0.493215
    133 C43         7.6770   -3.9980   -0.8820 c3        1 MOL      0.151242
    134 C44         8.0440   -2.4820   -1.0200 c         1 MOL      0.412189
    135 O18         8.7030   -1.8930   -0.1810 o         1 MOL     -0.480251
    136 C45         8.4670   -4.7590   -1.9860 c3        1 MOL     -0.217325
    137 H62         6.0060   -4.9590   -1.6870 hn        1 MOL      0.307757
    138 H63         8.0310   -4.3310    0.0930 h1        1 MOL      0.071628
    139 H64         8.1110   -5.7880   -2.0900 hc        1 MOL      0.068300
    140 H65         8.1770   -4.3730   -2.9570 hc        1 MOL      0.068300
    141 H66         9.5520   -4.7710   -1.8550 hc        1 MOL      0.068300
    142 N13         7.5630   -1.8600   -2.1040 n         1 MOL     -0.276358
    143 C46         7.9610   -0.5110   -2.4760 c3        1 MOL     -0.019070
    144 C47         7.3110    0.5510   -1.5660 c         1 MOL      0.520709
    145 O19         7.8860    1.6050   -1.3780 o         1 MOL     -0.555836
    146 C48         7.6570   -0.2510   -3.9670 c3        1 MOL     -0.279106
    147 H67         6.9560   -2.3440   -2.7420 hn        1 MOL      0.245362
    148 H68         9.0160   -0.3950   -2.2030 h1        1 MOL      0.121409
    149 H69         8.0730   -0.9870   -4.6620 hc        1 MOL      0.087448
    150 H70         6.5880   -0.1700   -4.1370 hc        1 MOL      0.087448
    151 H71         8.0200    0.7260   -4.2890 hc        1 MOL      0.087448
    152 N14         6.2010    0.1590   -0.9410 n         1 MOL     -0.011040
    153 C49         5.3580    0.9470    0.0190 c3        1 MOL     -0.133129
    154 C50         5.8460    0.8730    1.4580 c         1 MOL      0.464151
    155 O20         5.7830    1.9230    2.1360 o         1 MOL     -0.554643
    156 C51         3.9710    0.3430    0.0120 c3        1 MOL      0.071465
    157 C52         2.8700    1.0400    0.8150 c3        1 MOL      0.007838
    158 C53         1.4430    0.8180    0.2470 c         1 MOL      0.713252
    159 O21         0.5930    1.7530    0.1210 o         1 MOL     -0.749059
    160 O22         1.2180   -0.3280   -0.1350 o         1 MOL     -0.749059
    161 H72         5.8630   -0.7780   -1.0770 hn        1 MOL     -0.284035
    162 H73         5.2610    1.9750   -0.3120 h1        1 MOL      0.106748
    163 H74         3.8860   -0.7290    0.1760 hc        1 MOL     -0.025391
    164 H75         3.5720    0.5680   -0.9750 hc        1 MOL     -0.025391
    165 H76         3.0260    2.1140    0.9440 hc        1 MOL      0.012284
    166 H77         2.8880    0.7590    1.8650 hc        1 MOL      0.012284
    167 N15         6.1730   -0.3440    1.9050 n         1 MOL     -0.074954
    168 C54         6.8600   -0.5670    3.1440 c3        1 MOL     -0.294778
    169 H78         6.9810    0.3820    3.6680 h1        1 MOL      0.111088
    170 H79         6.2820   -1.2530    3.7630 h1        1 MOL      0.111088
    171 H80         7.8420   -0.9970    2.9430 h1        1 MOL      0.111088
    172 H81         6.0590   -1.1130    1.2670 hn        1 MOL      0.169721
    173 Ca1        -1.1830    0.1340   -1.1440 Ca        1 MOL      1.705852
    174 O23        -0.5810   -2.4160   -2.0590 oh        1 MOL     -0.788125
    175 H82        -1.2070   -2.5080   -2.7830 ho        1 MOL      0.382647
    176 H83         0.0050   -3.1540   -2.1450 ho        1 MOL      0.382647
    177 O24         0.9500    0.6200   -3.0690 oh        1 MOL     -0.788125
    178 H84         0.8740    0.4020   -4.0020 ho        1 MOL      0.382647
    179 H85         1.6200    0.0240   -2.7420 ho        1 MOL      0.382647
    180 O25        -1.4740   -0.6080   -3.8840 oh        1 MOL     -0.788125
    181 H86        -1.5300   -1.0870   -4.7100 ho        1 MOL      0.382647
    182 H87        -1.6880    0.2980   -4.1190 ho        1 MOL      0.382647
@<TRIPOS>BOND
     1    1    2 1   
     2    1    4 1   
     3    1    5 1   
     4    1    6 1   
     5    2    3 2   
     6    2    7 1   
     7    7    8 1   
     8    7   15 1   
     9    8    9 1   
    10    8   11 1   
    11    8   16 1   
    12    9   10 2   
    13    9   19 1   
    14   11   12 1   
    15   11   17 1   
    16   11   18 1   
    17   12   13 1   
    18   12   14 1   
    19   19   20 1   
    20   19   28 1   
    21   20   21 1   
    22   20   23 1   
    23   20   29 1   
    24   21   22 2   
    25   21   41 1   
    26   23   24 1   
    27   23   30 1   
    28   23   31 1   
    29   24   25 1   
    30   24   32 1   
    31   24   33 1   
    32   25   26 1   
    33   25   34 1   
    34   25   35 1   
    35   26   27 1   
    36   26   36 1   
    37   26   37 1   
    38   27   38 1   
    39   27   39 1   
    40   27   40 1   
    41   41   42 1   
    42   41   49 1   
    43   42   43 1   
    44   42   45 1   
    45   42   50 1   
    46   43   44 2   
    47   43   53 1   
    48   45   46 1   
    49   45   51 1   
    50   45   52 1   
    51   46   47 1   
    52   46   48 1   
    53   53   54 1   
    54   53   57 1   
    55   54   55 1   
    56   54   58 1   
    57   54   59 1   
    58   55   56 2   
    59   55   60 1   
    60   60   61 1   
    61   60   68 1   
    62   61   62 1   
    63   61   64 1   
    64   61   69 1   
    65   62   63 2   
    66   62   74 1   
    67   64   65 1   
    68   64   70 1   
    69   64   71 1   
    70   65   66 1   
    71   65   67 2   
    72   66   72 1   
    73   66   73 1   
    74   74   75 1   
    75   74   78 1   
    76   75   76 1   
    77   75   79 1   
    78   75   80 1   
    79   76   77 2   
    80   76   81 1   
    81   81   82 1   
    82   81   93 1   
    83   82   83 1   
    84   82   85 1   
    85   82   94 1   
    86   83   84 2   
    87   83  102 1   
    88   85   86 1   
    89   85   95 1   
    90   85   96 1   
    91   86   87 ar  
    92   86   88 ar  
    93   87   89 ar  
    94   87   97 1   
    95   88   90 ar  
    96   88   98 1   
    97   89   91 ar  
    98   89   99 1   
    99   90   91 ar  
   100   90  100 1   
   101   91   92 1   
   102   92  101 1   
   103  102  103 1   
   104  102  110 1   
   105  103  104 1   
   106  103  106 1   
   107  103  111 1   
   108  104  105 2   
   109  104  121 1   
   110  106  107 1   
   111  106  108 1   
   112  106  112 1   
   113  107  109 1   
   114  107  113 1   
   115  107  114 1   
   116  108  115 1   
   117  108  116 1   
   118  108  117 1   
   119  109  118 1   
   120  109  119 1   
   121  109  120 1   
   122  121  122 1   
   123  121  127 1   
   124  122  123 1   
   125  122  125 1   
   126  122  128 1   
   127  123  124 2   
   128  123  132 1   
   129  125  126 1   
   130  125  129 1   
   131  125  130 1   
   132  126  131 1   
   133  132  133 1   
   134  132  137 1   
   135  133  134 1   
   136  133  136 1   
   137  133  138 1   
   138  134  135 2   
   139  134  142 1   
   140  136  139 1   
   141  136  140 1   
   142  136  141 1   
   143  142  143 1   
   144  142  147 1   
   145  143  144 1   
   146  143  146 1   
   147  143  148 1   
   148  144  145 2   
   149  144  152 1   
   150  146  149 1   
   151  146  150 1   
   152  146  151 1   
   153  152  153 1   
   154  152  161 1   
   155  153  154 1   
   156  153  156 1   
   157  153  162 1   
   158  154  155 2   
   159  154  167 1   
   160  156  157 1   
   161  156  163 1   
   162  156  164 1   
   163  157  158 1   
   164  157  165 1   
   165  157  166 1   
   166  158  159 1   
   167  158  160 1   
   168  167  168 1   
   169  167  172 1   
   170  168  169 1   
   171  168  170 1   
   172  168  171 1   
   173  174  175 1   
   174  174  176 1   
   175  177  178 1   
   176  177  179 1   
   177  180  181 1   
   178  180  182 1   
@<TRIPOS>SUBSTRUCTURE
     1 MOL         1 TEMP              0 ****  ****    0 ROOT
