@<TRIPOS>MOLECULE
MOL
  183   181     1     0     0
SMALL
resp


@<TRIPOS>ATOM
      1 C1         -0.8190    1.6050    6.6210 c3        1 MOL     -0.269869
      2 C2         -1.1340    1.8240    5.1150 c         1 MOL      0.780553
      3 O1         -0.3630    2.4830    4.3930 o         1 MOL     -0.598643
      4 H1         -1.4670    2.2420    7.2230 hc        1 MOL      0.057740
      5 H2         -0.9930    0.5610    6.8820 hc        1 MOL      0.057740
      6 H3          0.2230    1.8600    6.8160 hc        1 MOL      0.057740
      7 N1         -2.2800    1.3300    4.6220 n         1 MOL     -0.674379
      8 C3         -2.6620    1.4500    3.1960 c3        1 MOL      0.279466
      9 C4         -2.9600    2.9130    2.8550 c         1 MOL      0.375151
     10 O2         -3.6760    3.5970    3.5850 o         1 MOL     -0.558993
     11 C5         -3.9230    0.6690    2.9870 c3        1 MOL     -0.010599
     12 C6         -4.4210    0.5640    1.5510 c         1 MOL      0.748021
     13 O3         -5.5740    0.0810    1.3480 o         1 MOL     -0.721313
     14 O4         -3.6810    0.9310    0.6390 o         1 MOL     -0.721313
     15 H4         -2.9140    0.8030    5.2070 hn        1 MOL      0.316676
     16 H5         -1.8790    1.0540    2.5490 h1        1 MOL      0.016304
     17 H6         -4.7410    0.9850    3.6410 hc        1 MOL     -0.032265
     18 H7         -3.6850   -0.3470    3.3120 hc        1 MOL     -0.032265
     19 N2         -2.3620    3.3400    1.7540 n         1 MOL     -0.106641
     20 C7         -2.4400    4.7130    1.3080 c3        1 MOL     -0.192188
     21 C8         -3.5290    4.8880    0.1250 c         1 MOL      0.570703
     22 O5         -3.9080    6.0460   -0.1280 o         1 MOL     -0.582067
     23 C9         -0.9820    5.1250    0.8520 c3        1 MOL      0.331959
     24 C10        -0.0500    4.9730    2.0550 c3        1 MOL      0.060860
     25 C11        -0.9930    6.5460    0.2900 c3        1 MOL     -0.382193
     26 C12         1.3810    5.0170    1.6000 c3        1 MOL     -0.067711
     27 H8         -1.8500    2.6840    1.1920 hn        1 MOL      0.120568
     28 H9         -2.7350    5.4470    2.0520 h1        1 MOL      0.086035
     29 H10        -0.7150    4.3730    0.1240 hc        1 MOL     -0.006047
     30 H11        -0.1880    4.0400    2.6080 hc        1 MOL     -0.020125
     31 H12        -0.1370    5.8340    2.7150 hc        1 MOL     -0.020125
     32 H13        -1.2940    7.2960    1.0320 hc        1 MOL      0.080747
     33 H14         0.0120    6.8110   -0.0250 hc        1 MOL      0.080747
     34 H15        -1.5400    6.6190   -0.6590 hc        1 MOL      0.080747
     35 H16         2.0570    4.5990    2.3530 hc        1 MOL     -0.002208
     36 H17         1.4800    4.3660    0.7270 hc        1 MOL     -0.002208
     37 H18         1.7430    6.0170    1.3690 hc        1 MOL     -0.002208
     38 N3         -4.0240    3.8400   -0.5780 n         1 MOL     -0.427256
     39 C13        -4.8830    3.9000   -1.7550 c3        1 MOL      0.032206
     40 C14        -6.1170    2.9320   -1.7280 c         1 MOL      0.404804
     41 O6         -6.8620    2.9360   -2.7230 o         1 MOL     -0.500295
     42 C15        -4.0370    3.7630   -3.0030 c3        1 MOL     -0.114258
     43 C16        -3.2840    2.4980   -3.2400 c         1 MOL      0.858141
     44 O7         -2.3820    2.5020   -4.0700 o         1 MOL     -0.743994
     45 O8         -3.6090    1.4720   -2.6650 o         1 MOL     -0.743994
     46 H19        -3.7240    2.8950   -0.3780 hn        1 MOL      0.218033
     47 H20        -5.2640    4.9260   -1.7430 h1        1 MOL      0.083012
     48 H21        -3.2600    4.5310   -3.0780 hc        1 MOL      0.023095
     49 H22        -4.6740    3.9270   -3.8660 hc        1 MOL      0.023095
     50 N4         -6.4590    2.2420   -0.5680 n         1 MOL     -0.197200
     51 C17        -7.8350    1.9490   -0.2830 c3        1 MOL     -0.221513
     52 C18        -8.2760    0.5860   -0.6900 c         1 MOL      0.523917
     53 O9         -9.4460    0.2900   -0.7850 o         1 MOL     -0.632121
     54 H23        -5.8180    2.3500    0.2040 hn        1 MOL      0.210595
     55 H24        -8.4450    2.7660   -0.6650 h1        1 MOL      0.115374
     56 H25        -8.0150    2.0080    0.7850 h1        1 MOL      0.115374
     57 N5         -7.3740   -0.3130   -1.0440 n         1 MOL     -0.113640
     58 C19        -7.5040   -1.7670   -1.4610 c3        1 MOL     -0.032395
     59 C20        -7.2230   -2.7820   -0.3760 c         1 MOL      0.462340
     60 O10        -7.1520   -4.0060   -0.5680 o         1 MOL     -0.583513
     61 C21        -6.6450   -2.0360   -2.6750 c3        1 MOL     -0.076706
     62 C22        -5.1080   -1.7910   -2.4970 c         1 MOL      0.701843
     63 O11        -4.4470   -1.6670   -3.5400 o         1 MOL     -0.675784
     64 O12        -4.5500   -1.7620   -1.3510 o         1 MOL     -0.675784
     65 H26        -6.4680    0.0570   -0.8030 hn        1 MOL      0.033286
     66 H27        -8.5700   -1.8570   -1.6300 h1        1 MOL      0.087403
     67 H28        -7.0120   -1.4070   -3.4890 hc        1 MOL      0.017621
     68 H29        -6.8710   -3.0550   -2.9710 hc        1 MOL      0.017621
     69 N6         -6.9100   -2.3350    0.7670 n         1 MOL     -0.337297
     70 C23        -6.7610   -3.2600    1.9780 c3        1 MOL      0.003603
     71 C24        -5.3720   -3.9850    2.0880 c         1 MOL      0.432610
     72 O13        -5.4070   -5.1130    2.6480 o         1 MOL     -0.578356
     73 H30        -6.7190   -1.3500    0.8380 hn        1 MOL      0.276708
     74 H31        -7.4620   -4.0820    1.9710 h1        1 MOL      0.060558
     75 H32        -6.9560   -2.7310    2.9100 h1        1 MOL      0.060558
     76 N7         -4.3110   -3.4810    1.4910 n         1 MOL     -0.097801
     77 C25        -2.9740   -4.0800    1.3820 c3        1 MOL     -0.113891
     78 C26        -1.8390   -3.0860    1.2220 c         1 MOL      0.670286
     79 O14        -2.0580   -1.8880    0.9410 o         1 MOL     -0.643034
     80 C27        -2.9190   -5.3040    0.5320 c3        1 MOL      0.180408
     81 C28        -3.5420   -5.2340   -0.8350 c3        1 MOL     -0.225577
     82 C29        -2.8150   -4.3470   -1.9070 c         1 MOL      0.500083
     83 N8         -2.8240   -4.7240   -3.1820 n         1 MOL     -0.632286
     84 O15        -2.3250   -3.2680   -1.6350 o         1 MOL     -0.553604
     85 H33        -4.3950   -2.6000    1.0020 hn        1 MOL      0.141111
     86 H34        -2.7690   -4.3380    2.4190 h1        1 MOL      0.023220
     87 H35        -3.4100   -6.0970    1.0840 hc        1 MOL     -0.022351
     88 H36        -1.8780   -5.6220    0.4980 hc        1 MOL     -0.022351
     89 H37        -4.5730   -4.8820   -0.7790 hc        1 MOL      0.081104
     90 H38        -3.4710   -6.2690   -1.1620 hc        1 MOL      0.081104
     91 H39        -3.2040   -5.6350   -3.3720 hn        1 MOL      0.317778
     92 H40        -2.2640   -4.2540   -3.8860 hn        1 MOL      0.317778
     93 N9         -0.6130   -3.5120    1.5990 n         1 MOL     -0.507619
     94 C30         0.5670   -2.6520    1.6780 c3        1 MOL      0.169425
     95 C31         1.6950   -3.2410    0.8570 c         1 MOL      0.306172
     96 O16         2.2390   -4.2760    1.1980 o         1 MOL     -0.511190
     97 C32         1.0290   -2.6640    3.1870 c3        1 MOL      0.194444
     98 C33         2.3010   -1.9060    3.3780 c3        1 MOL     -0.229253
     99 C34        -0.0970   -2.0700    4.1330 c3        1 MOL     -0.229253
    100 H41        -0.5160   -4.4970    1.7950 hn        1 MOL      0.299238
    101 H42         0.3520   -1.6120    1.4460 h1        1 MOL      0.079112
    102 H43         1.1690   -3.7200    3.4160 hc        1 MOL     -0.029917
    103 H44         3.1210   -2.3890    2.8650 hc        1 MOL      0.042091
    104 H45         2.2410   -0.8530    3.0730 hc        1 MOL      0.042091
    105 H46         2.5830   -1.8600    4.4270 hc        1 MOL      0.042091
    106 H47        -0.9840   -2.6960    4.0260 hc        1 MOL      0.042091
    107 H48         0.1820   -2.2530    5.1720 hc        1 MOL      0.042091
    108 H49        -0.3040   -1.0170    3.9170 hc        1 MOL      0.042091
    109 N10         2.0500   -2.5100   -0.2870 n         1 MOL     -0.058694
    110 C35         3.2040   -2.6950   -1.1620 c3        1 MOL      0.175216
    111 C36         4.4930   -2.0960   -0.5930 c         1 MOL      0.416086
    112 O17         4.5190   -1.4460    0.4480 o         1 MOL     -0.375352
    113 C37         2.9260   -2.1690   -2.5780 c3        1 MOL     -0.412536
    114 C38         1.8090   -2.9150   -3.1820 c         1 MOL      0.734451
    115 N11         0.5880   -2.4850   -3.0640 n         1 MOL     -0.921362
    116 O18         1.9900   -4.0440   -3.6770 o         1 MOL     -0.630225
    117 H50         1.4140   -1.7490   -0.5140 hn        1 MOL      0.038232
    118 H51         3.4820   -3.7470   -1.1540 h1        1 MOL      0.020378
    119 H52         3.7720   -2.4750   -3.2120 hc        1 MOL      0.112774
    120 H53         2.7850   -1.0880   -2.5750 hc        1 MOL      0.112774
    121 H54         0.3830   -1.6470   -2.5330 hn        1 MOL      0.438102
    122 H55        -0.1490   -2.9700   -3.5600 hn        1 MOL      0.438102
    123 N12         5.6310   -2.4050   -1.1850 n         1 MOL     -0.470515
    124 C39         6.9470   -2.0550   -0.5900 c3        1 MOL      0.009232
    125 C40         7.0640   -0.4800   -0.4250 c         1 MOL      0.580260
    126 O19         7.6240   -0.0260    0.6030 o         1 MOL     -0.480857
    127 C41         8.1460   -2.5700   -1.3960 c3        1 MOL     -0.056838
    128 C42         9.5000   -2.2180   -0.7840 ca        1 MOL     -0.009369
    129 C43         9.8040   -2.8010    0.4060 ca        1 MOL     -0.180492
    130 C44        10.2200   -1.0900   -1.2440 ca        1 MOL     -0.180492
    131 C45        10.8460   -2.3180    1.1870 ca        1 MOL     -0.248706
    132 C46        11.3430   -0.6350   -0.4290 ca        1 MOL     -0.248706
    133 C47        11.6340   -1.2740    0.8180 ca        1 MOL      0.377632
    134 O20        12.5990   -0.7290    1.5720 oh        1 MOL     -0.544862
    135 H56         5.6370   -2.9130   -2.0530 hn        1 MOL      0.295273
    136 H57         6.9800   -2.4640    0.4160 h1        1 MOL      0.086373
    137 H58         8.1890   -2.1150   -2.3840 hc        1 MOL      0.041885
    138 H59         8.1100   -3.6180   -1.7180 hc        1 MOL      0.041885
    139 H60         9.1620   -3.5190    0.8990 ha        1 MOL      0.149548
    140 H61         9.9520   -0.5890   -2.1630 ha        1 MOL      0.149548
    141 H62        11.0460   -2.8870    2.0830 ha        1 MOL      0.134018
    142 H63        11.8830    0.2670   -0.6870 ha        1 MOL      0.134018
    143 H64        13.0310    0.0550    1.2100 ho        1 MOL      0.394887
    144 N13         6.5320    0.2570   -1.3910 n         1 MOL     -0.381997
    145 C48         6.3990    1.7500   -1.3210 c3        1 MOL     -0.036276
    146 C49         5.5300    2.2730   -0.1960 c         1 MOL      0.225299
    147 O21         5.8630    3.2920    0.3810 o         1 MOL     -0.496596
    148 C50         5.7930    2.2130   -2.7140 c3        1 MOL     -0.006208
    149 C51         5.9530    3.7070   -2.8210 c3        1 MOL     -0.107376
    150 C52         5.5560    4.1650   -4.1780 c         1 MOL      0.707760
    151 O22         4.6860    5.0740   -4.2460 o         1 MOL     -0.748398
    152 O23         6.2070    3.6580   -5.1240 o         1 MOL     -0.748398
    153 H65         6.1410   -0.3430   -2.0990 hn        1 MOL      0.210079
    154 H66         7.4390    2.0530   -1.2430 h1        1 MOL      0.117016
    155 H67         4.7540    1.8950   -2.7620 hc        1 MOL      0.012740
    156 H68         6.3740    1.7210   -3.4950 hc        1 MOL      0.012740
    157 H69         6.9840    4.0390   -2.7310 hc        1 MOL      0.022927
    158 H70         5.3560    4.2370   -2.0810 hc        1 MOL      0.022927
    159 N14         4.4820    1.5690    0.2200 n         1 MOL     -0.077016
    160 C53         3.4540    1.8460    1.2830 c3        1 MOL      0.006791
    161 C54         3.9080    1.4290    2.6450 c         1 MOL      0.367035
    162 O24         3.4890    2.0070    3.6240 o         1 MOL     -0.505437
    163 C55         2.1970    1.1170    0.9210 c3        1 MOL     -0.001377
    164 C56         1.6650    1.4250   -0.4940 c3        1 MOL     -0.105792
    165 C57         0.3210    0.8360   -0.7490 c         1 MOL      0.689213
    166 O25        -0.7090    1.5560   -0.8380 o         1 MOL     -0.711504
    167 O26         0.2320   -0.3780   -0.9210 o         1 MOL     -0.711504
    168 H71         4.3140    0.6580   -0.1960 hn        1 MOL      0.177113
    169 H72         3.3130    2.9280    1.2420 h1        1 MOL      0.111708
    170 H73         1.4500    1.4920    1.6200 hc        1 MOL      0.052904
    171 H74         2.4250    0.0500    0.9970 hc        1 MOL      0.052904
    172 H75         2.3270    1.0930   -1.2880 hc        1 MOL      0.040624
    173 H76         1.5890    2.5050   -0.6290 hc        1 MOL      0.040624
    174 N15         4.9030    0.4500    2.7520 n         1 MOL      0.006626
    175 C58         5.5240   -0.0180    3.9520 c3        1 MOL     -0.186825
    176 H77         4.9690    0.3500    4.8150 h1        1 MOL      0.064300
    177 H78         5.5260   -1.1070    3.9590 h1        1 MOL      0.064300
    178 H79         6.5500    0.3480    3.9970 h1        1 MOL      0.064300
    179 H80         5.2640    0.0800    1.8860 hn        1 MOL      0.017412
    180 Ca1        -2.4920   -0.4080   -1.2590 Ca        1 MOL      1.743817
    181 O27        -1.1090   -0.0930   -3.6820 oh        1 MOL     -0.899632
    182 H81        -0.3450   -0.2880   -4.2060 ho        1 MOL      0.414869
    183 H82        -1.3630    0.7890   -3.9420 ho        1 MOL      0.414869
@<TRIPOS>BOND
     1    1    2 1   
     2    1    4 1   
     3    1    5 1   
     4    1    6 1   
     5    2    3 2   
     6    2    7 1   
     7    7    8 1   
     8    7   15 1   
     9    8    9 1   
    10    8   11 1   
    11    8   16 1   
    12    9   10 2   
    13    9   19 1   
    14   11   12 1   
    15   11   17 1   
    16   11   18 1   
    17   12   13 1   
    18   12   14 1   
    19   19   20 1   
    20   19   27 1   
    21   20   21 1   
    22   20   23 1   
    23   20   28 1   
    24   21   22 2   
    25   21   38 1   
    26   23   24 1   
    27   23   25 1   
    28   23   29 1   
    29   24   26 1   
    30   24   30 1   
    31   24   31 1   
    32   25   32 1   
    33   25   33 1   
    34   25   34 1   
    35   26   35 1   
    36   26   36 1   
    37   26   37 1   
    38   38   39 1   
    39   38   46 1   
    40   39   40 1   
    41   39   42 1   
    42   39   47 1   
    43   40   41 2   
    44   40   50 1   
    45   42   43 1   
    46   42   48 1   
    47   42   49 1   
    48   43   44 1   
    49   43   45 1   
    50   50   51 1   
    51   50   54 1   
    52   51   52 1   
    53   51   55 1   
    54   51   56 1   
    55   52   53 2   
    56   52   57 1   
    57   57   58 1   
    58   57   65 1   
    59   58   59 1   
    60   58   61 1   
    61   58   66 1   
    62   59   60 2   
    63   59   69 1   
    64   61   62 1   
    65   61   67 1   
    66   61   68 1   
    67   62   63 1   
    68   62   64 1   
    69   69   70 1   
    70   69   73 1   
    71   70   71 1   
    72   70   74 1   
    73   70   75 1   
    74   71   72 2   
    75   71   76 1   
    76   76   77 1   
    77   76   85 1   
    78   77   78 1   
    79   77   80 1   
    80   77   86 1   
    81   78   79 2   
    82   78   93 1   
    83   80   81 1   
    84   80   87 1   
    85   80   88 1   
    86   81   82 1   
    87   81   89 1   
    88   81   90 1   
    89   82   83 1   
    90   82   84 2   
    91   83   91 1   
    92   83   92 1   
    93   93   94 1   
    94   93  100 1   
    95   94   95 1   
    96   94   97 1   
    97   94  101 1   
    98   95   96 2   
    99   95  109 1   
   100   97   98 1   
   101   97   99 1   
   102   97  102 1   
   103   98  103 1   
   104   98  104 1   
   105   98  105 1   
   106   99  106 1   
   107   99  107 1   
   108   99  108 1   
   109  109  110 1   
   110  109  117 1   
   111  110  111 1   
   112  110  113 1   
   113  110  118 1   
   114  111  112 2   
   115  111  123 1   
   116  113  114 1   
   117  113  119 1   
   118  113  120 1   
   119  114  115 1   
   120  114  116 2   
   121  115  121 1   
   122  115  122 1   
   123  123  124 1   
   124  123  135 1   
   125  124  125 1   
   126  124  127 1   
   127  124  136 1   
   128  125  126 2   
   129  125  144 1   
   130  127  128 1   
   131  127  137 1   
   132  127  138 1   
   133  128  129 ar  
   134  128  130 ar  
   135  129  131 ar  
   136  129  139 1   
   137  130  132 ar  
   138  130  140 1   
   139  131  133 ar  
   140  131  141 1   
   141  132  133 ar  
   142  132  142 1   
   143  133  134 1   
   144  134  143 1   
   145  144  145 1   
   146  144  153 1   
   147  145  146 1   
   148  145  148 1   
   149  145  154 1   
   150  146  147 2   
   151  146  159 1   
   152  148  149 1   
   153  148  155 1   
   154  148  156 1   
   155  149  150 1   
   156  149  157 1   
   157  149  158 1   
   158  150  151 1   
   159  150  152 1   
   160  159  160 1   
   161  159  168 1   
   162  160  161 1   
   163  160  163 1   
   164  160  169 1   
   165  161  162 2   
   166  161  174 1   
   167  163  164 1   
   168  163  170 1   
   169  163  171 1   
   170  164  165 1   
   171  164  172 1   
   172  164  173 1   
   173  165  166 1   
   174  165  167 1   
   175  174  175 1   
   176  174  179 1   
   177  175  176 1   
   178  175  177 1   
   179  175  178 1   
   180  181  182 1   
   181  181  183 1   
@<TRIPOS>SUBSTRUCTURE
     1 MOL         1 TEMP              0 ****  ****    0 ROOT
