@<TRIPOS>MOLECULE
MOL
  172   171     1     0     0
SMALL
resp


@<TRIPOS>ATOM
      1 C1          0.5340    3.1610    5.4350 c3        1 MOL     -0.441081
      2 C2         -0.1360    3.3600    4.1040 c         1 MOL      0.723071
      3 O1          0.5080    3.4990    3.0640 o         1 MOL     -0.544511
      4 H1          1.2860    2.3750    5.3490 hc        1 MOL      0.107986
      5 H2          1.0140    4.0900    5.7430 hc        1 MOL      0.107986
      6 H3         -0.2100    2.8720    6.1780 hc        1 MOL      0.107986
      7 N1         -1.4550    3.4260    4.0450 n         1 MOL     -0.575218
      8 C3         -2.2330    3.3110    2.7990 c3        1 MOL      0.440285
      9 C4         -2.3550    4.6690    1.9950 c         1 MOL      0.397222
     10 O2         -2.1210    5.6680    2.6680 o         1 MOL     -0.562146
     11 C5         -3.6030    2.6850    2.9990 c3        1 MOL     -0.341335
     12 C6         -4.3340    2.3910    1.6960 c         1 MOL      0.732861
     13 O3         -5.3810    2.9760    1.4410 o         1 MOL     -0.671278
     14 O4         -3.7320    1.7420    0.8040 o         1 MOL     -0.671278
     15 H4         -1.9700    3.5680    4.8990 hn        1 MOL      0.285141
     16 H5         -1.6840    2.6490    2.1160 h1        1 MOL     -0.093612
     17 H6         -4.2810    3.2340    3.6530 hc        1 MOL      0.034517
     18 H7         -3.3390    1.7590    3.5270 hc        1 MOL      0.034517
     19 N2         -2.8340    4.6150    0.7320 n         1 MOL     -0.132784
     20 C7         -3.2880    5.7100   -0.1900 c3        1 MOL      0.090283
     21 C8         -4.0130    5.1860   -1.4720 c         1 MOL      0.566374
     22 O5         -4.1010    5.8680   -2.4930 o         1 MOL     -0.534097
     23 C9         -2.0730    6.6210   -0.4290 c3        1 MOL     -0.194527
     24 H8         -3.1520    3.7070    0.4430 hn        1 MOL      0.109907
     25 H9         -4.0770    6.0950    0.4550 h1        1 MOL      0.016990
     26 H10        -1.8750    7.2470    0.4370 hc        1 MOL      0.051759
     27 H11        -1.2070    5.9700   -0.5600 hc        1 MOL      0.051759
     28 H12        -2.3910    7.2270   -1.2780 hc        1 MOL      0.051759
     29 N3         -4.5470    3.9420   -1.3770 n         1 MOL     -0.501077
     30 C10        -5.2520    3.3570   -2.5310 c3        1 MOL      0.059967
     31 C11        -6.5150    2.4840   -2.1690 c         1 MOL      0.368602
     32 O6         -7.3040    2.0930   -3.0500 o         1 MOL     -0.539817
     33 C12        -4.2800    2.5300   -3.3600 c3        1 MOL     -0.126047
     34 C13        -3.4060    1.5510   -2.5580 c         1 MOL      0.648542
     35 O7         -3.9640    0.7370   -1.8120 o         1 MOL     -0.656390
     36 O8         -2.1760    1.5720   -2.6060 o         1 MOL     -0.656390
     37 H13        -4.3950    3.3780   -0.5500 hn        1 MOL      0.268227
     38 H14        -5.6130    4.0930   -3.2510 h1        1 MOL      0.089096
     39 H15        -3.6650    3.2480   -3.8990 hc        1 MOL      0.034742
     40 H16        -4.7970    1.9310   -4.1040 hc        1 MOL      0.034742
     41 N4         -6.6550    2.1300   -0.8880 n         1 MOL     -0.182741
     42 C14        -7.6830    1.1710   -0.4940 c3        1 MOL     -0.416767
     43 C15        -7.5860   -0.2990   -1.0150 c         1 MOL      0.542368
     44 O9         -8.4900   -1.1080   -0.7620 o         1 MOL     -0.597971
     45 H17        -5.8360    2.2570   -0.3060 hn        1 MOL      0.242980
     46 H18        -8.6120    1.5910   -0.8700 h1        1 MOL      0.167699
     47 H19        -7.6480    1.0850    0.6010 h1        1 MOL      0.167699
     48 N5         -6.4990   -0.6840   -1.7040 n         1 MOL     -0.151572
     49 C16        -6.2870   -2.0860   -2.0280 c3        1 MOL     -0.212114
     50 C17        -6.2800   -3.1800   -0.9410 c         1 MOL      0.565480
     51 O10        -6.4020   -4.3960   -1.2440 o         1 MOL     -0.565289
     52 C18        -5.0730   -2.3070   -3.0760 c3        1 MOL     -0.146374
     53 C19        -3.6370   -2.1620   -2.6010 c         1 MOL      0.683676
     54 N6         -2.6990   -2.2960   -3.4770 n         1 MOL     -0.652459
     55 O11        -3.4260   -1.9920   -1.4080 o         1 MOL     -0.643227
     56 H20        -5.7240   -0.0320   -1.7260 hn        1 MOL      0.213072
     57 H21        -7.1580   -2.2290   -2.6750 h1        1 MOL      0.136908
     58 H22        -5.0890   -1.5520   -3.8700 hc        1 MOL      0.051518
     59 H23        -5.1710   -3.2640   -3.5760 hc        1 MOL      0.051518
     60 H24        -2.8940   -2.5450   -4.4320 hn        1 MOL      0.330324
     61 H25        -1.7890   -1.9420   -3.1900 hn        1 MOL      0.330324
     62 N7         -6.2170   -2.8330    0.3220 n         1 MOL     -0.276399
     63 C20        -6.0970   -3.7870    1.4370 c3        1 MOL     -0.272662
     64 C21        -4.6690   -4.3740    1.6990 c         1 MOL      0.525794
     65 O12        -4.5690   -5.2650    2.5970 o         1 MOL     -0.584804
     66 H26        -6.0410   -1.8560    0.5260 hn        1 MOL      0.297532
     67 H27        -6.8900   -4.5320    1.3170 h1        1 MOL      0.129714
     68 H28        -6.2960   -3.2710    2.3700 h1        1 MOL      0.129714
     69 N8         -3.6790   -4.0940    0.8690 n         1 MOL     -0.074090
     70 C22        -2.3320   -4.5960    1.0430 c3        1 MOL     -0.348763
     71 C23        -1.2440   -3.5640    1.1660 c         1 MOL      0.631558
     72 O13        -1.3800   -2.5350    0.5370 o         1 MOL     -0.505025
     73 C24        -1.9020   -5.6360   -0.0270 c3        1 MOL      0.412367
     74 C25        -2.5790   -6.9810    0.2220 c3        1 MOL     -0.457954
     75 O14        -2.2760   -5.3400   -1.3600 oh        1 MOL     -0.596036
     76 H29        -3.6930   -3.4800    0.0620 hn        1 MOL      0.230010
     77 H30        -2.3520   -5.1380    1.9920 h1        1 MOL      0.104501
     78 H31        -0.8180   -5.7820   -0.0570 h1        1 MOL      0.017383
     79 H32        -1.9860   -4.4660   -1.6320 ho        1 MOL      0.362860
     80 H33        -2.2030   -7.7060   -0.4890 hc        1 MOL      0.123769
     81 H34        -2.3570   -7.4630    1.1680 hc        1 MOL      0.123769
     82 H35        -3.6690   -6.8550    0.1660 hc        1 MOL      0.123769
     83 N9         -0.1320   -3.8780    1.8000 n         1 MOL     -0.465743
     84 C26         1.0740   -2.9860    1.9260 c3        1 MOL     -0.047084
     85 C27         1.8600   -3.0690    0.5510 c         1 MOL      0.487908
     86 O15         2.3830   -4.1580    0.1830 o         1 MOL     -0.571670
     87 C28         1.9060   -3.2840    3.1220 c3        1 MOL     -0.002297
     88 C29         1.0040   -2.8930    4.3770 c3        1 MOL      0.088388
     89 C30         3.1620   -2.5250    3.3130 c3        1 MOL     -0.075368
     90 C31         1.5040   -2.8840    5.8230 c3        1 MOL     -0.187726
     91 H36        -0.0530   -4.7410    2.3160 hn        1 MOL      0.283619
     92 H37         0.7760   -1.9410    2.0260 h1        1 MOL      0.069243
     93 H38         2.1090   -4.3600    3.1920 hc        1 MOL      0.020212
     94 H39         0.0650   -3.4360    4.2840 hc        1 MOL     -0.016784
     95 H40         0.7260   -1.8670    4.1490 hc        1 MOL     -0.016784
     96 H41         3.0470   -1.4680    3.5320 hc        1 MOL      0.018019
     97 H42         3.7770   -2.8980    4.1280 hc        1 MOL      0.018019
     98 H43         3.8430   -2.5800    2.4600 hc        1 MOL      0.018019
     99 H44         1.8530   -3.8990    6.0200 hc        1 MOL      0.043367
    100 H45         2.2960   -2.1420    5.9760 hc        1 MOL      0.043367
    101 H46         0.6920   -2.6220    6.4900 hc        1 MOL      0.043367
    102 N10         1.9490   -1.9670   -0.2260 n         1 MOL     -0.191270
    103 C32         2.7580   -1.8120   -1.4140 c3        1 MOL      0.030659
    104 C33         4.2100   -1.4790   -1.0400 c         1 MOL      0.511745
    105 O16         4.5220   -1.3570    0.1490 o         1 MOL     -0.406945
    106 C34         2.1340   -0.8370   -2.3700 c3        1 MOL     -0.289355
    107 C35         0.5890   -0.9780   -2.6000 c         1 MOL      0.782239
    108 O17        -0.2450   -0.6890   -1.7680 o         1 MOL     -0.702699
    109 O18         0.1760   -1.3310   -3.7640 o         1 MOL     -0.702699
    110 H47         1.3630   -1.1700   -0.0190 hn        1 MOL      0.157849
    111 H48         2.7400   -2.7990   -1.8750 h1        1 MOL      0.067876
    112 H49         2.6600   -1.0140   -3.3090 hc        1 MOL      0.042592
    113 H50         2.4200    0.1400   -1.9850 hc        1 MOL      0.042592
    114 N11         5.1660   -1.4170   -1.9720 n         1 MOL     -0.673436
    115 C36         6.5490   -0.9980   -1.6910 c3        1 MOL      0.348088
    116 C37         6.7550    0.3770   -1.0170 c         1 MOL      0.311824
    117 O19         7.1430    0.3350    0.1130 o         1 MOL     -0.459966
    118 C38         7.4710   -1.1590   -2.9780 c3        1 MOL     -0.343447
    119 C39         8.9710   -0.9840   -2.5840 ca        1 MOL      0.116902
    120 C40         9.5510   -1.8440   -1.6420 ca        1 MOL     -0.120218
    121 C41         9.8420   -0.2450   -3.3980 ca        1 MOL     -0.120218
    122 C42        10.9460   -1.8270   -1.4010 ca        1 MOL     -0.179958
    123 C43        11.2180   -0.1010   -3.1490 ca        1 MOL     -0.179958
    124 C44        11.7080   -0.8370   -2.1020 ca        1 MOL     -0.035227
    125 H51         4.8780   -1.5590   -2.9320 hn        1 MOL      0.363366
    126 H52         6.9010   -1.6490   -0.8940 h1        1 MOL      0.082293
    127 H53         7.1490   -0.4930   -3.7770 hc        1 MOL      0.106258
    128 H54         7.3910   -2.1850   -3.3390 hc        1 MOL      0.106258
    129 H55         8.9490   -2.5030   -1.0500 ha        1 MOL      0.099458
    130 H56         9.3340    0.3370   -4.1550 ha        1 MOL      0.099458
    131 H57        11.3430   -2.4550   -0.6220 ha        1 MOL      0.134003
    132 H58        11.9010    0.4830   -3.7620 ha        1 MOL      0.134003
    133 H59        12.7700   -0.7770   -1.9080 ha        1 MOL      0.072128
    134 N12         6.3280    1.5760   -1.6020 n         1 MOL     -0.122571
    135 C45         6.3510    2.9060   -0.9270 c3        1 MOL     -0.044285
    136 C46         5.7150    2.9070    0.5160 c         1 MOL      0.403436
    137 O20         6.1830    3.5110    1.5020 o         1 MOL     -0.506258
    138 C47         5.6380    3.8090   -1.9710 c3        1 MOL     -0.107467
    139 C48         4.7250    2.8840   -2.7770 c3        1 MOL      0.018512
    140 C49         5.6060    1.6670   -2.8540 c3        1 MOL     -0.062172
    141 H60         7.3830    3.2280   -0.8070 h1        1 MOL      0.074999
    142 H61         5.0920    4.6070   -1.4630 hc        1 MOL      0.055068
    143 H62         6.3050    4.2950   -2.6840 hc        1 MOL      0.055068
    144 H63         3.8700    2.7480   -2.1150 hc        1 MOL      0.032311
    145 H64         4.4690    3.3380   -3.7320 hc        1 MOL      0.032311
    146 H65         5.0500    0.7420   -2.9840 h1        1 MOL      0.037634
    147 H66         6.3310    1.7650   -3.6590 h1        1 MOL      0.037634
    148 N13         4.6640    2.0490    0.7310 n         1 MOL     -0.187432
    149 C50         4.0920    1.7130    1.9960 c3        1 MOL     -0.184141
    150 C51         4.9670    0.8590    2.9070 c         1 MOL      0.534878
    151 O21         5.0780    1.0910    4.1060 o         1 MOL     -0.617303
    152 C52         2.7180    1.0300    1.8090 c3        1 MOL     -0.162374
    153 C53         1.8700    1.8350    0.8170 c3        1 MOL     -0.317299
    154 C54         0.3850    1.4160    0.8330 c         1 MOL      0.891038
    155 O22        -0.0850    0.4200    1.4040 o         1 MOL     -0.813400
    156 O23        -0.4080    1.9820    0.0590 o         1 MOL     -0.813400
    157 H67         4.2820    1.6090   -0.0920 hn        1 MOL      0.277629
    158 H68         3.9860    2.6990    2.4570 h1        1 MOL      0.129382
    159 H69         2.2050    1.0920    2.7650 hc        1 MOL      0.144816
    160 H70         2.7840   -0.0040    1.4820 hc        1 MOL      0.144816
    161 H71         2.1880    1.8350   -0.2230 hc        1 MOL      0.100561
    162 H72         1.9070    2.9040    1.0130 hc        1 MOL      0.100561
    163 N14         5.6400   -0.1240    2.4150 n         1 MOL      0.019578
    164 C55         6.6850   -0.8020    3.2220 c3        1 MOL     -0.246398
    165 H73         7.4940   -1.1270    2.5680 h1        1 MOL      0.083189
    166 H74         7.0760   -0.1100    3.9670 h1        1 MOL      0.083189
    167 H75         6.2530   -1.6690    3.7230 h1        1 MOL      0.083189
    168 H76         5.4330   -0.3650    1.4550 hn        1 MOL      0.066663
    169 Ca1        -2.1170    0.0800   -0.1950 Ca        1 MOL      1.745485
    170 O24        -3.8390   -1.2210    1.5060 oh        1 MOL     -1.007579
    171 H77        -3.3010   -1.4200    2.2710 ho        1 MOL      0.450536
    172 H78        -4.6130   -0.7960    1.8730 ho        1 MOL      0.450536
@<TRIPOS>BOND
     1    1    2 1   
     2    1    4 1   
     3    1    5 1   
     4    1    6 1   
     5    2    3 2   
     6    2    7 1   
     7    7    8 1   
     8    7   15 1   
     9    8    9 1   
    10    8   11 1   
    11    8   16 1   
    12    9   10 2   
    13    9   19 1   
    14   11   12 1   
    15   11   17 1   
    16   11   18 1   
    17   12   13 1   
    18   12   14 1   
    19   19   20 1   
    20   19   24 1   
    21   20   21 1   
    22   20   23 1   
    23   20   25 1   
    24   21   22 2   
    25   21   29 1   
    26   23   26 1   
    27   23   27 1   
    28   23   28 1   
    29   29   30 1   
    30   29   37 1   
    31   30   31 1   
    32   30   33 1   
    33   30   38 1   
    34   31   32 2   
    35   31   41 1   
    36   33   34 1   
    37   33   39 1   
    38   33   40 1   
    39   34   35 1   
    40   34   36 1   
    41   41   42 1   
    42   41   45 1   
    43   42   43 1   
    44   42   46 1   
    45   42   47 1   
    46   43   44 2   
    47   43   48 1   
    48   48   49 1   
    49   48   56 1   
    50   49   50 1   
    51   49   52 1   
    52   49   57 1   
    53   50   51 2   
    54   50   62 1   
    55   52   53 1   
    56   52   58 1   
    57   52   59 1   
    58   53   54 1   
    59   53   55 2   
    60   54   60 1   
    61   54   61 1   
    62   62   63 1   
    63   62   66 1   
    64   63   64 1   
    65   63   67 1   
    66   63   68 1   
    67   64   65 2   
    68   64   69 1   
    69   69   70 1   
    70   69   76 1   
    71   70   71 1   
    72   70   73 1   
    73   70   77 1   
    74   71   72 2   
    75   71   83 1   
    76   73   74 1   
    77   73   75 1   
    78   73   78 1   
    79   74   80 1   
    80   74   81 1   
    81   74   82 1   
    82   75   79 1   
    83   83   84 1   
    84   83   91 1   
    85   84   85 1   
    86   84   87 1   
    87   84   92 1   
    88   85   86 2   
    89   85  102 1   
    90   87   88 1   
    91   87   89 1   
    92   87   93 1   
    93   88   90 1   
    94   88   94 1   
    95   88   95 1   
    96   89   96 1   
    97   89   97 1   
    98   89   98 1   
    99   90   99 1   
   100   90  100 1   
   101   90  101 1   
   102  102  103 1   
   103  102  110 1   
   104  103  104 1   
   105  103  106 1   
   106  103  111 1   
   107  104  105 2   
   108  104  114 1   
   109  106  107 1   
   110  106  112 1   
   111  106  113 1   
   112  107  108 1   
   113  107  109 1   
   114  114  115 1   
   115  114  125 1   
   116  115  116 1   
   117  115  118 1   
   118  115  126 1   
   119  116  117 2   
   120  116  134 1   
   121  118  119 1   
   122  118  127 1   
   123  118  128 1   
   124  119  120 ar  
   125  119  121 ar  
   126  120  122 ar  
   127  120  129 1   
   128  121  123 ar  
   129  121  130 1   
   130  122  124 ar  
   131  122  131 1   
   132  123  124 ar  
   133  123  132 1   
   134  124  133 1   
   135  134  135 1   
   136  134  140 1   
   137  135  136 1   
   138  135  138 1   
   139  135  141 1   
   140  136  137 2   
   141  136  148 1   
   142  138  139 1   
   143  138  142 1   
   144  138  143 1   
   145  139  140 1   
   146  139  144 1   
   147  139  145 1   
   148  140  146 1   
   149  140  147 1   
   150  148  149 1   
   151  148  157 1   
   152  149  150 1   
   153  149  152 1   
   154  149  158 1   
   155  150  151 2   
   156  150  163 1   
   157  152  153 1   
   158  152  159 1   
   159  152  160 1   
   160  153  154 1   
   161  153  161 1   
   162  153  162 1   
   163  154  155 1   
   164  154  156 1   
   165  163  164 1   
   166  163  168 1   
   167  164  165 1   
   168  164  166 1   
   169  164  167 1   
   170  170  171 1   
   171  170  172 1   
@<TRIPOS>SUBSTRUCTURE
     1 MOL         1 TEMP              0 ****  ****    0 ROOT
