@<TRIPOS>MOLECULE
MOL
  179   176     1     0     0
SMALL
resp


@<TRIPOS>ATOM
      1 C1          1.5070    2.8480    5.7220 c3        1 MOL     -0.378515
      2 C2          0.9110    2.7850    4.3010 c         1 MOL      0.645748
      3 O1          1.6570    2.6000    3.3160 o         1 MOL     -0.575429
      4 H1          0.7180    2.6750    6.4540 hc        1 MOL      0.104947
      5 H2          2.2750    2.0810    5.8280 hc        1 MOL      0.104947
      6 H3          1.9490    3.8300    5.8880 hc        1 MOL      0.104947
      7 N1         -0.4210    2.7430    4.1170 n         1 MOL     -0.555242
      8 C3         -1.1490    2.5340    2.8800 c3        1 MOL      0.070968
      9 C4         -1.5050    3.8820    2.2080 c         1 MOL      0.422109
     10 O2         -2.3980    4.5920    2.7640 o         1 MOL     -0.548348
     11 C5         -2.3990    1.6740    3.0740 c3        1 MOL     -0.013485
     12 C6         -3.0460    1.2150    1.7390 c         1 MOL      0.702680
     13 O3         -4.0940    0.5380    1.7150 o         1 MOL     -0.731430
     14 O4         -2.4920    1.6140    0.6860 o         1 MOL     -0.731430
     15 H4         -0.9990    2.6740    4.9490 hn        1 MOL      0.326405
     16 H5         -0.5790    1.9500    2.1450 h1        1 MOL     -0.044493
     17 H6         -3.1710    2.0800    3.7230 hc        1 MOL      0.011461
     18 H7         -2.0800    0.7760    3.6010 hc        1 MOL      0.011461
     19 N2         -0.7610    4.2480    1.2170 n         1 MOL     -0.066209
     20 C7         -0.6680    5.5820    0.5920 c3        1 MOL     -0.283109
     21 C8         -1.8150    5.8310   -0.3530 c         1 MOL      0.501000
     22 O5         -2.3710    6.9140   -0.4360 o         1 MOL     -0.543318
     23 C9          0.6620    5.6360   -0.1690 c3        1 MOL     -0.015170
     24 C10         1.0300    7.1160   -0.4220 c3        1 MOL      0.016267
     25 C11         2.4270    7.4310   -1.1220 c3        1 MOL      0.101771
     26 C12         2.7620    8.9270   -1.4210 c3        1 MOL     -0.119204
     27 N3          2.4110    9.7320   -0.2800 n4        1 MOL     -0.150863
     28 H8          0.0090    3.6300    0.9990 hn        1 MOL      0.245438
     29 H9         -0.7360    6.2780    1.4300 h1        1 MOL      0.139139
     30 H10         0.6170    5.1610   -1.1450 hc        1 MOL      0.048265
     31 H11         1.4470    5.0940    0.3580 hc        1 MOL      0.048265
     32 H12         0.9910    7.7070    0.4990 hc        1 MOL     -0.002730
     33 H13         0.2720    7.6170   -1.0420 hc        1 MOL     -0.002730
     34 H14         2.5700    6.7720   -1.9740 hc        1 MOL      0.008612
     35 H15         3.1720    7.0950   -0.3990 hc        1 MOL      0.008612
     36 H16         2.1370    9.1970   -2.2710 hx        1 MOL      0.110663
     37 H17         3.8110    9.0480   -1.6940 hx        1 MOL      0.110663
     38 H18         1.4010    9.7670   -0.1870 hn        1 MOL      0.279953
     39 H19         2.8360    9.4880    0.6010 hn        1 MOL      0.279953
     40 H20         2.6560   10.6920   -0.4360 hn        1 MOL      0.279953
     41 N4         -2.1920    4.7940   -1.0930 n         1 MOL     -0.237006
     42 C13        -3.2870    4.7390   -2.0570 c3        1 MOL      0.070849
     43 C14        -4.6180    4.1970   -1.4750 c         1 MOL      0.387612
     44 O6         -5.7210    4.5030   -2.0140 o         1 MOL     -0.537178
     45 C15        -2.7980    4.0120   -3.3170 c3        1 MOL     -0.388055
     46 C16        -2.1860    2.5980   -3.0170 c         1 MOL      0.742431
     47 O7         -0.9240    2.4190   -3.0100 o         1 MOL     -0.713836
     48 O8         -2.9390    1.6130   -2.6940 o         1 MOL     -0.713836
     49 H21        -1.7650    3.8840   -0.9900 hn        1 MOL      0.170291
     50 H22        -3.3740    5.7960   -2.3070 h1        1 MOL      0.100229
     51 H23        -2.1140    4.7280   -3.7730 hc        1 MOL      0.115230
     52 H24        -3.6530    3.8100   -3.9650 hc        1 MOL      0.115230
     53 N5         -4.5670    3.3790   -0.4020 n         1 MOL     -0.055622
     54 C17        -5.7200    3.0240    0.4530 c3        1 MOL     -0.410318
     55 C18        -6.3410    1.7540   -0.0790 c         1 MOL      0.596863
     56 O9         -7.4180    1.3410    0.3300 o         1 MOL     -0.591416
     57 H25        -3.6910    2.9800   -0.1030 hn        1 MOL      0.134641
     58 H26        -6.5120    3.7760    0.4920 h1        1 MOL      0.186188
     59 H27        -5.3960    2.8080    1.4600 h1        1 MOL      0.186188
     60 N6         -5.6660    1.0190   -0.9840 n         1 MOL     -0.242174
     61 C19        -6.1900   -0.2830   -1.5200 c3        1 MOL     -0.104212
     62 C20        -6.4290   -1.4410   -0.5380 c         1 MOL      0.308934
     63 O10        -6.9830   -2.4840   -0.8530 o         1 MOL     -0.452777
     64 C21        -5.3290   -0.7000   -2.7100 c3        1 MOL     -0.081559
     65 C22        -4.0470   -1.3650   -2.2880 c         1 MOL      0.444634
     66 N7         -3.6070   -2.3600   -3.0140 n         1 MOL     -0.590114
     67 O11        -3.3540   -1.0270   -1.3080 o         1 MOL     -0.536745
     68 H28        -4.7780    1.3920   -1.2780 hn        1 MOL      0.168465
     69 H29        -7.1870    0.0480   -1.8250 h1        1 MOL      0.130353
     70 H30        -5.2380    0.0900   -3.4600 hc        1 MOL      0.070881
     71 H31        -5.8530   -1.4400   -3.3250 hc        1 MOL      0.070881
     72 H32        -4.1770   -2.7110   -3.7700 hn        1 MOL      0.312092
     73 H33        -2.6330   -2.6280   -2.9430 hn        1 MOL      0.312092
     74 N8         -6.0460   -1.2210    0.7250 n         1 MOL     -0.024960
     75 C23        -6.2010   -2.1810    1.8210 c3        1 MOL     -0.395666
     76 C24        -4.9080   -2.9420    2.1770 c         1 MOL      0.720125
     77 O12        -4.9000   -3.8730    2.9910 o         1 MOL     -0.591165
     78 H34        -5.5920   -0.3690    1.0280 hn        1 MOL      0.278170
     79 H35        -6.9940   -2.8940    1.5740 h1        1 MOL      0.145334
     80 H36        -6.5500   -1.6800    2.7290 h1        1 MOL      0.145334
     81 N9         -3.8190   -2.5660    1.4950 n         1 MOL     -0.660227
     82 C25        -2.6000   -3.4060    1.4420 c3        1 MOL      0.495901
     83 C26        -1.3250   -2.5220    1.4350 c         1 MOL      0.326345
     84 O13        -1.3120   -1.3500    1.0890 o         1 MOL     -0.548848
     85 C27        -2.5820   -4.2310    0.1130 c3        1 MOL     -0.110002
     86 C28        -3.7150   -5.2940   -0.1760 ca        1 MOL      0.054867
     87 C29        -4.8830   -5.0020   -0.9170 ca        1 MOL     -0.209954
     88 C30        -3.5690   -6.6170    0.3070 ca        1 MOL     -0.209954
     89 C31        -5.9140   -5.9130   -1.0810 ca        1 MOL     -0.189957
     90 C32        -4.5770   -7.5710    0.0300 ca        1 MOL     -0.189957
     91 C33        -5.7460   -7.2260   -0.6230 ca        1 MOL      0.296838
     92 O14        -6.7510   -8.0910   -0.8650 oh        1 MOL     -0.477173
     93 H37        -3.8640   -1.8060    0.8310 hn        1 MOL      0.410499
     94 H38        -2.5720   -3.9580    2.3790 h1        1 MOL     -0.032187
     95 H39        -1.6720   -4.8120   -0.0380 hc        1 MOL      0.022469
     96 H40        -2.7330   -3.6460   -0.7950 hc        1 MOL      0.022469
     97 H41        -5.0980   -3.9840   -1.2250 ha        1 MOL      0.129642
     98 H42        -2.7040   -6.9930    0.8500 ha        1 MOL      0.129642
     99 H43        -6.8330   -5.6280   -1.5580 ha        1 MOL      0.117393
    100 H44        -4.4230   -8.5880    0.3580 ha        1 MOL      0.117393
    101 H45        -6.5730   -9.0300   -0.7900 ho        1 MOL      0.353486
    102 N10        -0.2050   -3.2400    1.5940 n         1 MOL     -0.381328
    103 C34         1.1020   -2.7530    1.2740 c3        1 MOL      0.080696
    104 C35         2.0390   -3.6590    0.4490 c         1 MOL      0.392336
    105 O15         1.9700   -4.8880    0.6960 o         1 MOL     -0.533965
    106 C36         1.7860   -2.1080    2.4980 c3        1 MOL     -0.047531
    107 C37         2.1200   -3.0790    3.6770 c3        1 MOL     -0.022001
    108 C38         1.1040   -0.7720    3.0180 c3        1 MOL      0.023066
    109 C39         2.6380   -2.4540    4.9810 c3        1 MOL     -0.018944
    110 H46        -0.1840   -4.2110    1.8490 hn        1 MOL      0.243788
    111 H47         1.0280   -1.9120    0.5890 h1        1 MOL      0.185337
    112 H48         2.7380   -1.7800    2.0950 hc        1 MOL     -0.003067
    113 H49         2.8270   -3.8210    3.3160 hc        1 MOL      0.017244
    114 H50         1.2500   -3.6950    3.9340 hc        1 MOL      0.017244
    115 H51         0.2260   -1.0260    3.6170 hc        1 MOL      0.036606
    116 H52         1.7400   -0.0940    3.5980 hc        1 MOL      0.036606
    117 H53         0.7780   -0.1170    2.2140 hc        1 MOL      0.036606
    118 H54         1.7800   -1.8740    5.3480 hc        1 MOL     -0.001345
    119 H55         2.7200   -3.2600    5.7140 hc        1 MOL     -0.001345
    120 H56         3.5480   -1.8610    4.9940 hc        1 MOL     -0.001345
    121 N11         2.9770   -3.0960   -0.3230 n         1 MOL     -0.101324
    122 C40         4.0590   -3.8360   -1.0510 c3        1 MOL     -0.036184
    123 C41         5.3900   -3.6290   -0.3000 c         1 MOL      0.532616
    124 O16         5.4830   -2.7750    0.6120 o         1 MOL     -0.440913
    125 C42         4.1340   -3.4470   -2.5220 c3        1 MOL     -0.027048
    126 O17         4.3160   -2.0690   -2.6360 oh        1 MOL     -0.395547
    127 H57         2.9360   -2.0890   -0.4260 hn        1 MOL      0.069481
    128 H58         3.8180   -4.8970   -0.9290 h1        1 MOL      0.074580
    129 H59         3.1660   -3.5810   -3.0030 h1        1 MOL      0.050518
    130 H60         4.9300   -3.9450   -3.0770 h1        1 MOL      0.050518
    131 H61         3.9830   -1.8120   -3.5030 ho        1 MOL      0.375001
    132 N12         6.4910   -4.2610   -0.7840 n         1 MOL     -0.509612
    133 C43         7.8830   -3.9240   -0.3660 c3        1 MOL      0.119045
    134 C44         8.1890   -2.4340   -0.7010 c         1 MOL      0.545118
    135 O18         8.6380   -1.6550    0.1160 o         1 MOL     -0.494770
    136 C45         8.9620   -4.8890   -0.9460 c3        1 MOL     -0.254452
    137 H62         6.3110   -4.8600   -1.5770 hn        1 MOL      0.299147
    138 H63         7.9430   -4.0670    0.7100 h1        1 MOL      0.087606
    139 H64         9.0200   -4.8610   -2.0350 hc        1 MOL      0.080853
    140 H65         9.9160   -4.6360   -0.4810 hc        1 MOL      0.080853
    141 H66         8.7280   -5.9240   -0.6850 hc        1 MOL      0.080853
    142 N13         8.0040   -2.0660   -1.9960 n         1 MOL     -0.533301
    143 C46         8.3000   -0.6590   -2.3540 c3        1 MOL      0.148055
    144 C47         7.4990    0.3760   -1.4890 c         1 MOL      0.324704
    145 O19         8.1270    1.3200   -1.0070 o         1 MOL     -0.496944
    146 C48         8.0630   -0.4010   -3.8250 c3        1 MOL     -0.225875
    147 H67         7.5580   -2.6400   -2.6960 hn        1 MOL      0.326288
    148 H68         9.3570   -0.5330   -2.1310 h1        1 MOL      0.098681
    149 H69         8.2040    0.5900   -4.2620 hc        1 MOL      0.062532
    150 H70         8.7580   -0.9880   -4.4190 hc        1 MOL      0.062532
    151 H71         7.0960   -0.8540   -4.0510 hc        1 MOL      0.062532
    152 N14         6.2010    0.1400   -1.2590 n         1 MOL     -0.053471
    153 C49         5.4080    1.0540   -0.4180 c3        1 MOL     -0.150757
    154 C50         5.8900    1.1220    1.0820 c         1 MOL      0.411522
    155 O20         5.7060    2.1100    1.8280 o         1 MOL     -0.548381
    156 C51         3.9730    0.6760   -0.5920 c3        1 MOL      0.042633
    157 C52         2.9670    1.5320    0.1660 c3        1 MOL     -0.075156
    158 C53         1.5560    1.1320   -0.3050 c         1 MOL      0.873557
    159 O21         0.5980    1.9270   -0.2620 o         1 MOL     -0.862992
    160 O22         1.2980   -0.0320   -0.7220 o         1 MOL     -0.862992
    161 H72         5.7440   -0.6000   -1.7830 hn        1 MOL      0.028353
    162 H73         5.6300    2.0750   -0.7380 h1        1 MOL      0.097498
    163 H74         3.8200   -0.3280   -0.2040 hc        1 MOL      0.016528
    164 H75         3.7670    0.7940   -1.6530 hc        1 MOL      0.016528
    165 H76         3.1780    2.5270   -0.2310 hc        1 MOL      0.039745
    166 H77         3.0300    1.3990    1.2410 hc        1 MOL      0.039745
    167 N15         6.4180    0.0100    1.6400 n         1 MOL      0.040673
    168 C54         6.9020   -0.0930    3.0500 c3        1 MOL     -0.275950
    169 H78         6.1200    0.2460    3.7280 h1        1 MOL      0.112570
    170 H79         7.1520   -1.1300    3.2740 h1        1 MOL      0.112570
    171 H80         7.7870    0.5300    3.1770 h1        1 MOL      0.112570
    172 H81         6.3180   -0.8130    1.0520 hn        1 MOL      0.046424
    173 Ca1        -1.1830    0.4510   -1.2560 Ca        1 MOL      1.804300
    174 O23        -0.5070   -2.1940   -2.1020 oh        1 MOL     -0.855881
    175 H82        -0.6220   -1.8520   -2.9900 ho        1 MOL      0.413608
    176 H83         0.0300   -2.9760   -2.2090 ho        1 MOL      0.413608
    177 O24        -1.1050   -0.3630   -4.0680 oh        1 MOL     -0.855881
    178 H84        -1.0830    0.5440   -4.3870 ho        1 MOL      0.413608
    179 H85        -1.7130   -0.8070   -4.6480 ho        1 MOL      0.413608
@<TRIPOS>BOND
     1    1    2 1   
     2    1    4 1   
     3    1    5 1   
     4    1    6 1   
     5    2    3 2   
     6    2    7 1   
     7    7    8 1   
     8    7   15 1   
     9    8    9 1   
    10    8   11 1   
    11    8   16 1   
    12    9   10 2   
    13    9   19 1   
    14   11   12 1   
    15   11   17 1   
    16   11   18 1   
    17   12   13 1   
    18   12   14 1   
    19   19   20 1   
    20   19   28 1   
    21   20   21 1   
    22   20   23 1   
    23   20   29 1   
    24   21   22 2   
    25   21   41 1   
    26   23   24 1   
    27   23   30 1   
    28   23   31 1   
    29   24   25 1   
    30   24   32 1   
    31   24   33 1   
    32   25   26 1   
    33   25   34 1   
    34   25   35 1   
    35   26   27 1   
    36   26   36 1   
    37   26   37 1   
    38   27   38 1   
    39   27   39 1   
    40   27   40 1   
    41   41   42 1   
    42   41   49 1   
    43   42   43 1   
    44   42   45 1   
    45   42   50 1   
    46   43   44 2   
    47   43   53 1   
    48   45   46 1   
    49   45   51 1   
    50   45   52 1   
    51   46   47 1   
    52   46   48 1   
    53   53   54 1   
    54   53   57 1   
    55   54   55 1   
    56   54   58 1   
    57   54   59 1   
    58   55   56 2   
    59   55   60 1   
    60   60   61 1   
    61   60   68 1   
    62   61   62 1   
    63   61   64 1   
    64   61   69 1   
    65   62   63 2   
    66   62   74 1   
    67   64   65 1   
    68   64   70 1   
    69   64   71 1   
    70   65   66 1   
    71   65   67 2   
    72   66   72 1   
    73   66   73 1   
    74   74   75 1   
    75   74   78 1   
    76   75   76 1   
    77   75   79 1   
    78   75   80 1   
    79   76   77 2   
    80   76   81 1   
    81   81   82 1   
    82   81   93 1   
    83   82   83 1   
    84   82   85 1   
    85   82   94 1   
    86   83   84 2   
    87   83  102 1   
    88   85   86 1   
    89   85   95 1   
    90   85   96 1   
    91   86   87 ar  
    92   86   88 ar  
    93   87   89 ar  
    94   87   97 1   
    95   88   90 ar  
    96   88   98 1   
    97   89   91 ar  
    98   89   99 1   
    99   90   91 ar  
   100   90  100 1   
   101   91   92 1   
   102   92  101 1   
   103  102  103 1   
   104  102  110 1   
   105  103  104 1   
   106  103  106 1   
   107  103  111 1   
   108  104  105 2   
   109  104  121 1   
   110  106  107 1   
   111  106  108 1   
   112  106  112 1   
   113  107  109 1   
   114  107  113 1   
   115  107  114 1   
   116  108  115 1   
   117  108  116 1   
   118  108  117 1   
   119  109  118 1   
   120  109  119 1   
   121  109  120 1   
   122  121  122 1   
   123  121  127 1   
   124  122  123 1   
   125  122  125 1   
   126  122  128 1   
   127  123  124 2   
   128  123  132 1   
   129  125  126 1   
   130  125  129 1   
   131  125  130 1   
   132  126  131 1   
   133  132  133 1   
   134  132  137 1   
   135  133  134 1   
   136  133  136 1   
   137  133  138 1   
   138  134  135 2   
   139  134  142 1   
   140  136  139 1   
   141  136  140 1   
   142  136  141 1   
   143  142  143 1   
   144  142  147 1   
   145  143  144 1   
   146  143  146 1   
   147  143  148 1   
   148  144  145 2   
   149  144  152 1   
   150  146  149 1   
   151  146  150 1   
   152  146  151 1   
   153  152  153 1   
   154  152  161 1   
   155  153  154 1   
   156  153  156 1   
   157  153  162 1   
   158  154  155 2   
   159  154  167 1   
   160  156  157 1   
   161  156  163 1   
   162  156  164 1   
   163  157  158 1   
   164  157  165 1   
   165  157  166 1   
   166  158  159 1   
   167  158  160 1   
   168  167  168 1   
   169  167  172 1   
   170  168  169 1   
   171  168  170 1   
   172  168  171 1   
   173  174  175 1   
   174  174  176 1   
   175  177  178 1   
   176  177  179 1   
@<TRIPOS>SUBSTRUCTURE
     1 MOL         1 TEMP              0 ****  ****    0 ROOT
