@<TRIPOS>MOLECULE
MOL
  189   185     1     0     0
SMALL
resp


@<TRIPOS>ATOM
      1 C1          0.3570    3.5210   -5.1800 c3        1 MOL     -0.524392
      2 C2          0.7760    3.1070   -3.8220 c         1 MOL      0.717667
      3 O1          0.0550    3.3090   -2.8180 o         1 MOL     -0.608698
      4 H1         -0.1990    4.4570   -5.1180 hc        1 MOL      0.137613
      5 H2          1.2380    3.6630   -5.8060 hc        1 MOL      0.137613
      6 H3         -0.2800    2.7510   -5.6150 hc        1 MOL      0.137613
      7 N1          1.9350    2.4520   -3.6770 n         1 MOL     -0.549562
      8 C3          2.4000    1.9590   -2.4010 c3        1 MOL      0.232411
      9 C4          2.9160    3.1910   -1.5700 c         1 MOL      0.293104
     10 O2          3.9350    3.8670   -1.8290 o         1 MOL     -0.522225
     11 C5          3.5030    0.9170   -2.6780 c3        1 MOL     -0.247428
     12 C6          4.1780    0.3100   -1.4490 c         1 MOL      0.914649
     13 O3          3.5020    0.3120   -0.3720 o         1 MOL     -0.771814
     14 O4          5.3840   -0.0640   -1.4150 o         1 MOL     -0.771814
     15 H4          2.5270    2.2770   -4.4800 hn        1 MOL      0.318588
     16 H5          1.6060    1.4720   -1.8340 h1        1 MOL     -0.002634
     17 H6          4.2600    1.3250   -3.3470 hc        1 MOL      0.044964
     18 H7          2.9870    0.0650   -3.1110 hc        1 MOL      0.044964
     19 N2          2.1940    3.5840   -0.4900 n         1 MOL      0.003710
     20 C7          2.4030    4.8990    0.1300 c3        1 MOL      0.267088
     21 C8          3.3940    4.7720    1.2420 c         1 MOL      0.269158
     22 O5          4.2220    5.7030    1.2930 o         1 MOL     -0.553800
     23 C9          1.1750    5.5480    0.6720 c3        1 MOL     -0.158250
     24 C10         0.1660    5.8890   -0.4310 c3        1 MOL      0.039636
     25 C11         0.6210    6.6530   -1.6930 c3        1 MOL     -0.088101
     26 C12        -0.5900    7.2950   -2.2970 c3        1 MOL      0.125358
     27 N3         -0.2790    8.0570   -3.5400 n4        1 MOL     -0.493608
     28 H8          1.4220    3.0400   -0.1190 hn        1 MOL      0.081217
     29 H9          2.9340    5.5310   -0.5820 h1        1 MOL      0.002437
     30 H10         1.4860    6.4530    1.1890 hc        1 MOL      0.052830
     31 H11         0.7390    4.8690    1.4070 hc        1 MOL      0.052830
     32 H12        -0.5470    6.5470    0.0760 hc        1 MOL      0.003913
     33 H13        -0.3140    4.9610   -0.7370 hc        1 MOL      0.003913
     34 H14         1.1190    5.9970   -2.4100 hc        1 MOL      0.036501
     35 H15         1.3660    7.4070   -1.4090 hc        1 MOL      0.036501
     36 H16        -1.1640    7.9140   -1.6020 hx        1 MOL      0.062914
     37 H17        -1.3160    6.5080   -2.4880 hx        1 MOL      0.062914
     38 H18         0.4390    8.7340   -3.3500 hn        1 MOL      0.358776
     39 H19         0.0450    7.3940   -4.2400 hn        1 MOL      0.358776
     40 H20        -1.1240    8.5210   -3.8310 hn        1 MOL      0.358776
     41 N4          3.4190    3.6960    2.0380 n         1 MOL     -0.164824
     42 C13         4.3410    3.4280    3.1300 c3        1 MOL      0.032010
     43 C14         5.5280    2.6520    2.5960 c         1 MOL      0.423949
     44 O6          6.4020    2.3040    3.3840 o         1 MOL     -0.523894
     45 C15         3.6770    2.7590    4.3000 c3        1 MOL     -0.273799
     46 C16         2.4330    1.9040    3.9400 c         1 MOL      0.766032
     47 O7          2.2530    1.3890    2.8490 o         1 MOL     -0.692404
     48 O8          1.4670    1.8700    4.7320 o         1 MOL     -0.692404
     49 H21         2.7580    2.9700    1.7950 hn        1 MOL      0.129312
     50 H22         4.7900    4.3470    3.5020 h1        1 MOL      0.105766
     51 H23         3.1720    3.5000    4.9310 hc        1 MOL      0.078104
     52 H24         4.3020    2.1900    4.9990 hc        1 MOL      0.078104
     53 N5          5.5710    2.3140    1.2900 n         1 MOL     -0.152460
     54 C17         6.7900    1.9080    0.6070 c3        1 MOL     -0.247016
     55 C18         7.3110    0.4840    1.0140 c         1 MOL      0.482133
     56 O9          8.5440    0.2690    0.8690 o         1 MOL     -0.582362
     57 H25         4.7070    2.4550    0.7740 hn        1 MOL      0.154475
     58 H26         7.6060    2.6050    0.7950 h1        1 MOL      0.133171
     59 H27         6.6350    1.8040   -0.4670 h1        1 MOL      0.133171
     60 N6          6.4090   -0.3800    1.4270 n         1 MOL     -0.067669
     61 C19         6.7660   -1.7120    1.8780 c3        1 MOL     -0.048239
     62 C20         6.7850   -2.8270    0.8050 c         1 MOL      0.417313
     63 O10         7.0170   -4.0290    1.1390 o         1 MOL     -0.536940
     64 C21         5.7410   -2.1540    3.0340 c3        1 MOL     -0.210420
     65 C22         4.2280   -1.9450    2.6360 c         1 MOL      0.767839
     66 O11         3.4270   -1.5320    3.5100 o         1 MOL     -0.690078
     67 O12         3.7190   -2.2840    1.5230 o         1 MOL     -0.690078
     68 H28         5.4170   -0.2020    1.4020 hn        1 MOL      0.040341
     69 H29         7.7710   -1.6060    2.2810 h1        1 MOL      0.105790
     70 H30         5.9190   -1.5190    3.9000 hc        1 MOL      0.070372
     71 H31         5.8590   -3.2280    3.1650 hc        1 MOL      0.070372
     72 N7          6.5200   -2.4080   -0.4240 n         1 MOL     -0.314480
     73 C23         6.5920   -3.2490   -1.6730 c3        1 MOL     -0.187821
     74 C24         5.3430   -4.1460   -1.8270 c         1 MOL      0.518642
     75 O13         5.4270   -5.0690   -2.6560 o         1 MOL     -0.551426
     76 H32         6.2480   -1.4400   -0.5500 hn        1 MOL      0.365046
     77 H33         7.5630   -3.7280   -1.6390 h1        1 MOL      0.120598
     78 H34         6.6550   -2.5490   -2.5110 h1        1 MOL      0.120598
     79 N8          4.2090   -3.8270   -1.1230 n         1 MOL     -0.208507
     80 C25         2.9410   -4.5420   -1.2210 c3        1 MOL     -0.166409
     81 C26         1.8130   -3.5310   -1.2730 c         1 MOL      0.676295
     82 O14         1.9410   -2.4020   -0.7460 o         1 MOL     -0.673204
     83 C27         2.7730   -5.5610   -0.0170 c3        1 MOL      0.506287
     84 C28         3.8690   -6.6880    0.0390 c3        1 MOL     -0.458094
     85 O15         2.8030   -4.8900    1.2240 oh        1 MOL     -0.657011
     86 H35         4.3090   -3.0800   -0.4460 hn        1 MOL      0.144391
     87 H36         2.6960   -5.0360   -2.1630 h1        1 MOL      0.061412
     88 H37         1.7580   -5.9410   -0.1380 h1        1 MOL     -0.041712
     89 H38         3.3270   -4.0930    1.1780 ho        1 MOL      0.409777
     90 H39         4.8710   -6.2450    0.0490 hc        1 MOL      0.119199
     91 H40         3.6800   -7.2160    0.9720 hc        1 MOL      0.119199
     92 H41         3.6670   -7.2820   -0.8540 hc        1 MOL      0.119199
     93 N9          0.7090   -3.9710   -1.8270 n         1 MOL     -0.545420
     94 C29        -0.4820   -3.1930   -1.9250 c3        1 MOL      0.205892
     95 C30        -1.6670   -3.7950   -1.1340 c         1 MOL      0.522017
     96 O16        -1.9800   -4.9390   -1.3000 o         1 MOL     -0.555666
     97 C31        -0.6500   -2.8340   -3.4450 c3        1 MOL     -0.103655
     98 C32         0.4090   -1.7790   -3.7490 c3        1 MOL      0.026046
     99 C33        -2.0930   -2.3800   -3.7770 c3        1 MOL     -0.019468
    100 C34         0.3360   -1.1270   -5.1990 c3        1 MOL     -0.128171
    101 H42         0.6260   -4.8900   -2.2480 hn        1 MOL      0.303064
    102 H43        -0.2460   -2.2370   -1.4530 h1        1 MOL     -0.063937
    103 H44        -0.4730   -3.7600   -3.9850 hc        1 MOL      0.052027
    104 H45         1.4290   -2.0400   -3.4670 hc        1 MOL      0.042933
    105 H46         0.1700   -0.9100   -3.1400 hc        1 MOL      0.042933
    106 H47        -2.7540   -3.2380   -3.6610 hc        1 MOL     -0.000069
    107 H48        -2.4730   -1.4990   -3.2670 hc        1 MOL     -0.000069
    108 H49        -2.2200   -2.1620   -4.8360 hc        1 MOL     -0.000069
    109 H50         0.3360   -1.8970   -5.9660 hc        1 MOL      0.030876
    110 H51        -0.4670   -0.4090   -5.3490 hc        1 MOL      0.030876
    111 H52         1.3090   -0.6750   -5.4310 hc        1 MOL      0.030876
    112 N10        -2.2960   -2.9780   -0.2900 n         1 MOL     -0.135754
    113 C35        -3.4900   -3.1260    0.5750 c3        1 MOL     -0.178383
    114 C36        -4.7300   -2.7050   -0.1780 c         1 MOL      0.393616
    115 O17        -4.6040   -2.0390   -1.2110 o         1 MOL     -0.384581
    116 C37        -3.3970   -2.1740    1.7200 c3        1 MOL      0.359094
    117 C38        -2.1610   -2.5740    2.5830 c3        1 MOL     -0.329293
    118 O18        -3.2940   -0.8070    1.3950 oh        1 MOL     -0.562998
    119 H53        -2.0200   -2.0110   -0.3390 hn        1 MOL      0.056905
    120 H54        -3.5260   -4.1640    0.9260 h1        1 MOL      0.104257
    121 H55        -4.2910   -2.3050    2.3290 h1        1 MOL      0.007552
    122 H56        -2.3840   -0.6800    1.1000 ho        1 MOL      0.338473
    123 H57        -1.3690   -1.9020    2.2670 hc        1 MOL      0.095998
    124 H58        -2.4940   -2.4070    3.6070 hc        1 MOL      0.095998
    125 H59        -1.8390   -3.6040    2.4570 hc        1 MOL      0.095998
    126 N11        -5.8760   -2.9410    0.4690 n         1 MOL     -0.221226
    127 C39        -7.2300   -2.5740   -0.1120 c3        1 MOL     -0.220493
    128 C40        -7.3720   -1.1080   -0.3560 c         1 MOL      0.535919
    129 O19        -7.9350   -0.6560   -1.3470 o         1 MOL     -0.519429
    130 C41        -8.4280   -3.0310    0.6110 c3        1 MOL      0.467822
    131 C42        -8.4180   -4.4830    1.0660 c3        1 MOL     -0.484349
    132 O20        -8.6580   -2.4180    1.8640 oh        1 MOL     -0.703689
    133 H60        -5.8690   -3.5380    1.2810 hn        1 MOL      0.220627
    134 H61        -7.2420   -2.8670   -1.1730 h1        1 MOL      0.127095
    135 H62        -9.3120   -2.9130   -0.0230 h1        1 MOL      0.014605
    136 H63        -9.5380   -2.6780    2.1620 ho        1 MOL      0.417255
    137 H64        -7.7200   -4.6230    1.8950 hc        1 MOL      0.127500
    138 H65        -9.3770   -4.6460    1.5540 hc        1 MOL      0.127500
    139 H66        -8.2650   -5.1980    0.2560 hc        1 MOL      0.127500
    140 N12        -6.9400   -0.3350    0.6010 n         1 MOL     -0.490402
    141 C43        -7.0990    1.1380    0.5610 c3        1 MOL      0.003363
    142 C44        -6.0900    1.6980   -0.5200 c         1 MOL      0.245335
    143 O21        -6.4510    2.7330   -1.1930 o         1 MOL     -0.529003
    144 C45        -6.7530    1.7800    1.8800 c3        1 MOL     -0.137152
    145 C46        -7.7390    1.3570    2.9660 c3        1 MOL      0.065836
    146 C47        -7.7560    2.1740    4.2870 c3        1 MOL      0.008316
    147 C48        -8.5190    1.6950    5.4430 c3        1 MOL     -0.042755
    148 N13        -9.8930    2.2870    5.5550 n4        1 MOL     -0.336919
    149 H67        -6.5680   -0.7950    1.4160 hn        1 MOL      0.336499
    150 H68        -8.0960    1.4070    0.2200 h1        1 MOL      0.150647
    151 H69        -6.9000    2.8590    1.8070 hc        1 MOL      0.070124
    152 H70        -5.7340    1.4990    2.1300 hc        1 MOL      0.070124
    153 H71        -7.5210    0.3550    3.3100 hc        1 MOL     -0.001853
    154 H72        -8.7530    1.4080    2.5700 hc        1 MOL     -0.001853
    155 H73        -7.9230    3.2220    4.0390 hc        1 MOL      0.040016
    156 H74        -6.7010    2.1370    4.5730 hc        1 MOL      0.040016
    157 H75        -7.9870    1.7310    6.3850 hx        1 MOL      0.111364
    158 H76        -8.6630    0.6490    5.1760 hx        1 MOL      0.111364
    159 H77       -10.4860    1.9980    4.7980 hn        1 MOL      0.303446
    160 H78       -10.3280    1.9240    6.3890 hn        1 MOL      0.303446
    161 H79        -9.9640    3.2870    5.6990 hn        1 MOL      0.303446
    162 N14        -4.9750    1.1080   -0.8400 n         1 MOL      0.085667
    163 C49        -3.9810    1.5040   -1.8690 c3        1 MOL     -0.240158
    164 C50        -4.5860    1.0920   -3.2730 c         1 MOL      0.483181
    165 O22        -4.4450    1.7430   -4.2820 o         1 MOL     -0.567217
    166 C51        -2.5800    0.8790   -1.5790 c3        1 MOL      0.062730
    167 C52        -1.9100    1.6830   -0.3990 c3        1 MOL      0.130024
    168 C53        -0.7470    0.9450    0.2260 c         1 MOL      0.500376
    169 O23        -0.7210   -0.3270    0.2490 o         1 MOL     -0.583715
    170 O24         0.2610    1.6130    0.5420 o         1 MOL     -0.583715
    171 H80        -4.7370    0.2840   -0.2960 hn        1 MOL      0.077027
    172 H81        -3.8920    2.5780   -1.9740 h1        1 MOL      0.107661
    173 H82        -1.8760    0.9350   -2.4160 hc        1 MOL      0.065233
    174 H83        -2.7680   -0.1400   -1.2540 hc        1 MOL      0.065233
    175 H84        -2.6800    1.9450    0.3390 hc        1 MOL     -0.033852
    176 H85        -1.7020    2.6860   -0.7780 hc        1 MOL     -0.033852
    177 N15        -5.2250   -0.0270   -3.2950 n         1 MOL     -0.029947
    178 C54        -5.8250   -0.4870   -4.5120 c3        1 MOL     -0.283123
    179 H86        -6.0850    0.3690   -5.1350 h1        1 MOL      0.099354
    180 H87        -5.1200   -1.1240   -5.0470 h1        1 MOL      0.099354
    181 H88        -6.7260   -1.0540   -4.2820 h1        1 MOL      0.099354
    182 H89        -5.1370   -0.6920   -2.5300 hn        1 MOL      0.138782
    183 Ca1         1.7050   -0.5570    1.2450 Ca        1 MOL      1.722691
    184 O25         0.2580   -0.2480    3.5040 oh        1 MOL     -0.912791
    185 H90        -0.2280   -0.3040    4.3350 ho        1 MOL      0.418699
    186 H91         0.9720    0.3590    3.6790 ho        1 MOL      0.418699
    187 O26         0.9980   -2.8870    1.9780 oh        1 MOL     -0.912791
    188 H92         0.5210   -3.4970    2.5520 ho        1 MOL      0.418699
    189 H93         1.8480   -3.2950    1.8450 ho        1 MOL      0.418699
@<TRIPOS>BOND
     1    1    2 1   
     2    1    4 1   
     3    1    5 1   
     4    1    6 1   
     5    2    3 2   
     6    2    7 1   
     7    7    8 1   
     8    7   15 1   
     9    8    9 1   
    10    8   11 1   
    11    8   16 1   
    12    9   10 2   
    13    9   19 1   
    14   11   12 1   
    15   11   17 1   
    16   11   18 1   
    17   12   13 1   
    18   12   14 1   
    19   19   20 1   
    20   19   28 1   
    21   20   21 1   
    22   20   23 1   
    23   20   29 1   
    24   21   22 2   
    25   21   41 1   
    26   23   24 1   
    27   23   30 1   
    28   23   31 1   
    29   24   25 1   
    30   24   32 1   
    31   24   33 1   
    32   25   26 1   
    33   25   34 1   
    34   25   35 1   
    35   26   27 1   
    36   26   36 1   
    37   26   37 1   
    38   27   38 1   
    39   27   39 1   
    40   27   40 1   
    41   41   42 1   
    42   41   49 1   
    43   42   43 1   
    44   42   45 1   
    45   42   50 1   
    46   43   44 2   
    47   43   53 1   
    48   45   46 1   
    49   45   51 1   
    50   45   52 1   
    51   46   47 1   
    52   46   48 1   
    53   53   54 1   
    54   53   57 1   
    55   54   55 1   
    56   54   58 1   
    57   54   59 1   
    58   55   56 2   
    59   55   60 1   
    60   60   61 1   
    61   60   68 1   
    62   61   62 1   
    63   61   64 1   
    64   61   69 1   
    65   62   63 2   
    66   62   72 1   
    67   64   65 1   
    68   64   70 1   
    69   64   71 1   
    70   65   66 1   
    71   65   67 1   
    72   72   73 1   
    73   72   76 1   
    74   73   74 1   
    75   73   77 1   
    76   73   78 1   
    77   74   75 2   
    78   74   79 1   
    79   79   80 1   
    80   79   86 1   
    81   80   81 1   
    82   80   83 1   
    83   80   87 1   
    84   81   82 2   
    85   81   93 1   
    86   83   84 1   
    87   83   85 1   
    88   83   88 1   
    89   84   90 1   
    90   84   91 1   
    91   84   92 1   
    92   85   89 1   
    93   93   94 1   
    94   93  101 1   
    95   94   95 1   
    96   94   97 1   
    97   94  102 1   
    98   95   96 2   
    99   95  112 1   
   100   97   98 1   
   101   97   99 1   
   102   97  103 1   
   103   98  100 1   
   104   98  104 1   
   105   98  105 1   
   106   99  106 1   
   107   99  107 1   
   108   99  108 1   
   109  100  109 1   
   110  100  110 1   
   111  100  111 1   
   112  112  113 1   
   113  112  119 1   
   114  113  114 1   
   115  113  116 1   
   116  113  120 1   
   117  114  115 2   
   118  114  126 1   
   119  116  117 1   
   120  116  118 1   
   121  116  121 1   
   122  117  123 1   
   123  117  124 1   
   124  117  125 1   
   125  118  122 1   
   126  126  127 1   
   127  126  133 1   
   128  127  128 1   
   129  127  130 1   
   130  127  134 1   
   131  128  129 2   
   132  128  140 1   
   133  130  131 1   
   134  130  132 1   
   135  130  135 1   
   136  131  137 1   
   137  131  138 1   
   138  131  139 1   
   139  132  136 1   
   140  140  141 1   
   141  140  149 1   
   142  141  142 1   
   143  141  144 1   
   144  141  150 1   
   145  142  143 2   
   146  142  162 1   
   147  144  145 1   
   148  144  151 1   
   149  144  152 1   
   150  145  146 1   
   151  145  153 1   
   152  145  154 1   
   153  146  147 1   
   154  146  155 1   
   155  146  156 1   
   156  147  148 1   
   157  147  157 1   
   158  147  158 1   
   159  148  159 1   
   160  148  160 1   
   161  148  161 1   
   162  162  163 1   
   163  162  171 1   
   164  163  164 1   
   165  163  166 1   
   166  163  172 1   
   167  164  165 2   
   168  164  177 1   
   169  166  167 1   
   170  166  173 1   
   171  166  174 1   
   172  167  168 1   
   173  167  175 1   
   174  167  176 1   
   175  168  169 1   
   176  168  170 1   
   177  177  178 1   
   178  177  182 1   
   179  178  179 1   
   180  178  180 1   
   181  178  181 1   
   182  184  185 1   
   183  184  186 1   
   184  187  188 1   
   185  187  189 1   
@<TRIPOS>SUBSTRUCTURE
     1 MOL         1 TEMP              0 ****  ****    0 ROOT
