@<TRIPOS>MOLECULE
MOL
  189   185     1     0     0
SMALL
resp


@<TRIPOS>ATOM
      1 C1          0.4410   -4.1680    5.8910 c3        1 MOL     -0.423847
      2 C2          0.7160   -4.1640    4.3840 c         1 MOL      0.769850
      3 O1         -0.2350   -4.0920    3.6400 o         1 MOL     -0.539174
      4 H1          0.2860   -5.1930    6.2280 hc        1 MOL      0.098604
      5 H2          1.2920   -3.7370    6.4180 hc        1 MOL      0.098604
      6 H3         -0.4520   -3.5790    6.0990 hc        1 MOL      0.098604
      7 N1          1.9760   -4.1440    3.9290 n         1 MOL     -0.719518
      8 C3          2.3660   -3.7690    2.5340 c3        1 MOL      0.434891
      9 C4          2.1000   -4.8780    1.5090 c         1 MOL      0.468559
     10 O2          2.1550   -6.0290    1.9160 o         1 MOL     -0.589062
     11 C5          3.8650   -3.3860    2.5880 c3        1 MOL     -0.452749
     12 C6          4.5200   -2.9800    1.2810 c         1 MOL      0.799566
     13 O3          3.7160   -2.5460    0.3960 o         1 MOL     -0.670072
     14 O4          5.7770   -2.9460    1.2020 o         1 MOL     -0.670072
     15 H4          2.7190   -4.2090    4.6120 hn        1 MOL      0.333475
     16 H5          1.6690   -3.0050    2.1850 h1        1 MOL     -0.108921
     17 H6          4.3920   -4.2760    2.9180 hc        1 MOL      0.075817
     18 H7          4.0270   -2.5920    3.3130 hc        1 MOL      0.075817
     19 N2          1.7940   -4.5890    0.2530 n         1 MOL     -0.187388
     20 C7          1.7330   -5.5600   -0.8880 c3        1 MOL     -0.174393
     21 C8          2.5640   -5.1620   -2.1600 c         1 MOL      0.499077
     22 O5          2.4590   -5.8450   -3.2050 o         1 MOL     -0.578213
     23 C9          0.2990   -5.9870   -1.2950 c3        1 MOL      0.264939
     24 C10        -0.5640   -4.8010   -1.8130 c3        1 MOL     -0.275344
     25 C11        -0.3550   -6.8450   -0.1590 c3        1 MOL     -0.190565
     26 C12        -2.0050   -5.1830   -2.2430 c3        1 MOL     -0.077925
     27 H8          1.7540   -3.6010    0.0550 hn        1 MOL      0.324507
     28 H9          2.3140   -6.4440   -0.6140 h1        1 MOL      0.097680
     29 H10         0.3750   -6.7860   -2.0370 hc        1 MOL     -0.026333
     30 H11        -0.1780   -4.3310   -2.7190 hc        1 MOL      0.110546
     31 H12        -0.5430   -4.0540   -1.0180 hc        1 MOL      0.110546
     32 H13        -1.2950   -7.3000   -0.4900 hc        1 MOL      0.036688
     33 H14         0.2830   -7.6890    0.0870 hc        1 MOL      0.036688
     34 H15        -0.4450   -6.1760    0.7030 hc        1 MOL      0.036688
     35 H16        -2.6750   -4.3230   -2.2170 hc        1 MOL      0.028103
     36 H17        -2.0710   -5.5130   -3.2770 hc        1 MOL      0.028103
     37 H18        -2.5340   -5.9620   -1.6850 hc        1 MOL      0.028103
     38 N3          3.3620   -4.0900   -2.1200 n         1 MOL     -0.342248
     39 C13         4.0620   -3.5730   -3.3270 c3        1 MOL      0.144619
     40 C14         5.4240   -2.9260   -2.9460 c         1 MOL      0.396611
     41 O6          6.1950   -2.7330   -3.8870 o         1 MOL     -0.573237
     42 C15         3.2720   -2.5020   -4.0820 c3        1 MOL     -0.352350
     43 C16         2.8930   -1.2120   -3.2960 c         1 MOL      0.871474
     44 O7          3.4530   -0.9400   -2.2010 o         1 MOL     -0.727162
     45 O8          1.9220   -0.5550   -3.5940 o         1 MOL     -0.727162
     46 H19         3.4220   -3.5540   -1.2670 hn        1 MOL      0.105286
     47 H20         4.3270   -4.4370   -3.9370 h1        1 MOL      0.080849
     48 H21         2.3520   -2.9690   -4.4470 hc        1 MOL      0.091065
     49 H22         3.8560   -2.0640   -4.8870 hc        1 MOL      0.091065
     50 N4          5.7780   -2.6240   -1.7200 n         1 MOL     -0.223805
     51 C17         7.1030   -2.1020   -1.4010 c3        1 MOL     -0.101251
     52 C18         7.2570   -0.5360   -1.5920 c         1 MOL      0.389502
     53 O9          8.3650    0.0230   -1.4880 o         1 MOL     -0.607290
     54 H23         5.0810   -2.6010   -0.9960 hn        1 MOL      0.157443
     55 H24         7.8650   -2.6970   -1.9010 h1        1 MOL      0.092566
     56 H25         7.3640   -2.2470   -0.3540 h1        1 MOL      0.092566
     57 N5          6.2230    0.1020   -2.1000 n         1 MOL     -0.094251
     58 C19         6.3410    1.5130   -2.5530 c3        1 MOL      0.005066
     59 C20         6.6440    2.5160   -1.4520 c         1 MOL      0.449295
     60 O10         7.0490    3.6290   -1.7380 o         1 MOL     -0.581206
     61 C21         5.0770    1.8430   -3.3200 c3        1 MOL     -0.302987
     62 C22         3.9160    2.2220   -2.3900 c         1 MOL      0.862838
     63 O11         3.8630    1.7940   -1.2320 o         1 MOL     -0.737362
     64 O12         2.9380    2.8430   -2.8230 o         1 MOL     -0.737362
     65 H26         5.3410   -0.3820   -2.1640 hn        1 MOL      0.139448
     66 H27         7.1680    1.4740   -3.2710 h1        1 MOL      0.092666
     67 H28         4.7460    1.0890   -4.0200 hc        1 MOL      0.073858
     68 H29         5.3470    2.7290   -3.8890 hc        1 MOL      0.073858
     69 N6          6.6180    2.1570   -0.1720 n         1 MOL     -0.059851
     70 C23         7.0740    3.0220    0.9120 c3        1 MOL     -0.342367
     71 C24         5.8750    3.8290    1.5450 c         1 MOL      0.570694
     72 O13         6.0680    4.4610    2.6020 o         1 MOL     -0.622150
     73 H30         6.1990    1.2610    0.0760 hn        1 MOL      0.165230
     74 H31         7.8890    3.6760    0.6100 h1        1 MOL      0.133712
     75 H32         7.3850    2.3530    1.7170 h1        1 MOL      0.133712
     76 N7          4.6630    3.7750    0.9860 n         1 MOL     -0.137697
     77 C25         3.4400    4.4390    1.4730 c3        1 MOL     -0.009875
     78 C26         2.4050    3.4210    1.9850 c         1 MOL      0.480324
     79 O14         2.5080    2.2490    1.6910 o         1 MOL     -0.547402
     80 C27         2.8880    5.2950    0.3250 c3        1 MOL      0.146545
     81 C28         3.8360    6.4950    0.0110 c3        1 MOL     -0.331621
     82 C29         3.1380    7.5330   -0.8730 c         1 MOL      0.698845
     83 N8          3.5010    7.7860   -2.1460 n         1 MOL     -0.832516
     84 O15         2.2580    8.2920   -0.4870 o         1 MOL     -0.582675
     85 H33         4.4140    3.1680    0.2230 hn        1 MOL      0.083362
     86 H34         3.6070    5.1220    2.3010 h1        1 MOL      0.044846
     87 H35         1.9620    5.7830    0.6420 hc        1 MOL      0.012426
     88 H36         2.7730    4.7100   -0.5840 hc        1 MOL      0.012426
     89 H37         4.8090    6.1850   -0.3780 hc        1 MOL      0.082288
     90 H38         4.0080    6.9710    0.9830 hc        1 MOL      0.082288
     91 H39         4.2380    7.1890   -2.5010 hn        1 MOL      0.372600
     92 H40         2.9760    8.4520   -2.6980 hn        1 MOL      0.372600
     93 N9          1.3280    3.8110    2.6350 n         1 MOL     -0.573654
     94 C30         0.1320    2.9330    2.8100 c3        1 MOL      0.197267
     95 C31        -0.9540    3.2730    1.7180 c         1 MOL      0.477592
     96 O16        -1.3340    4.4560    1.5410 o         1 MOL     -0.557841
     97 C32        -0.3390    2.8730    4.2780 c3        1 MOL      0.220053
     98 C33        -0.6340    4.2500    4.9130 c3        1 MOL     -0.252724
     99 C34        -1.5930    2.0270    4.3150 c3        1 MOL     -0.252724
    100 H41         1.3170    4.7390    3.0210 hn        1 MOL      0.329709
    101 H42         0.4320    1.9070    2.5980 h1        1 MOL      0.045618
    102 H43         0.4040    2.2750    4.8060 hc        1 MOL     -0.033830
    103 H44         0.3230    4.7450    4.7460 hc        1 MOL      0.049591
    104 H45        -1.3820    4.7220    4.2750 hc        1 MOL      0.049591
    105 H46        -0.9220    4.1580    5.9560 hc        1 MOL      0.049591
    106 H47        -2.3780    2.5320    3.7650 hc        1 MOL      0.049591
    107 H48        -1.3800    1.0290    3.9140 hc        1 MOL      0.049591
    108 H49        -1.8370    1.8840    5.3610 hc        1 MOL      0.049591
    109 N10        -1.5570    2.2350    1.0330 n         1 MOL     -0.282907
    110 C35        -2.7070    2.3220    0.1080 c3        1 MOL      0.137870
    111 C36        -4.0660    2.0770    0.8140 c         1 MOL      0.241652
    112 O17        -4.0630    1.5270    1.9390 o         1 MOL     -0.278789
    113 C37        -2.4410    1.3110   -0.9960 c3        1 MOL     -0.072511
    114 C38        -3.5920    1.2340   -1.9270 c         1 MOL      0.649084
    115 N11        -3.4960    1.9390   -3.0090 n         1 MOL     -0.724007
    116 O18        -4.6060    0.5580   -1.8050 o         1 MOL     -0.587695
    117 H50        -1.1270    1.3250    1.1640 hn        1 MOL      0.149409
    118 H51        -2.7950    3.3570   -0.2350 h1        1 MOL      0.034581
    119 H52        -2.3040    0.3120   -0.5780 hc        1 MOL      0.063576
    120 H53        -1.5520    1.6890   -1.5050 hc        1 MOL      0.063576
    121 H54        -2.7920    2.6350   -3.2220 hn        1 MOL      0.352912
    122 H55        -4.2530    1.8010   -3.6640 hn        1 MOL      0.352912
    123 N12        -5.1770    2.5360    0.2360 n         1 MOL     -0.230548
    124 C39        -6.5030    2.3300    0.8400 c3        1 MOL     -0.010031
    125 C40        -6.9240    0.9140    0.9620 c         1 MOL      0.314873
    126 O19        -7.6000    0.4970    1.8920 o         1 MOL     -0.555893
    127 C41        -7.6210    3.0520    0.0030 c3        1 MOL     -0.113239
    128 C42        -7.6560    2.8440   -1.4890 ca        1 MOL      0.010988
    129 C43        -8.4690    1.8150   -2.0690 ca        1 MOL     -0.185239
    130 C44        -6.9090    3.6170   -2.3820 ca        1 MOL     -0.185239
    131 C45        -8.7090    1.7640   -3.4250 ca        1 MOL     -0.269750
    132 C46        -7.0630    3.5210   -3.8110 ca        1 MOL     -0.269750
    133 C47        -8.0640    2.6890   -4.3130 ca        1 MOL      0.406942
    134 O20        -8.3030    2.8340   -5.6090 oh        1 MOL     -0.564544
    135 H56        -5.1450    2.8040   -0.7330 hn        1 MOL      0.124160
    136 H57        -6.4790    2.8030    1.8240 h1        1 MOL      0.099344
    137 H58        -7.6680    4.1040    0.3010 hc        1 MOL      0.072425
    138 H59        -8.6050    2.7390    0.3710 hc        1 MOL      0.072425
    139 H60        -8.9210    1.1120   -1.3850 ha        1 MOL      0.141517
    140 H61        -6.2910    4.3610   -1.9180 ha        1 MOL      0.141517
    141 H62        -9.3720    0.9780   -3.7530 ha        1 MOL      0.146040
    142 H63        -6.7060    4.2590   -4.5230 ha        1 MOL      0.146040
    143 H64        -9.0150    2.2840   -5.9510 ho        1 MOL      0.422420
    144 N13        -6.4280    0.0080    0.0720 n         1 MOL      0.033740
    145 C48        -6.4870   -1.4390    0.1490 c3        1 MOL     -0.482803
    146 C49        -5.4310   -2.0840    1.1130 c         1 MOL      0.539602
    147 O21        -5.4180   -3.2870    1.3540 o         1 MOL     -0.547809
    148 C50        -6.4010   -2.1130   -1.2030 c3        1 MOL      0.056398
    149 C51        -7.4620   -1.6270   -2.2030 c3        1 MOL     -0.330718
    150 C52        -7.6900   -2.8020   -3.2420 c         1 MOL      0.641328
    151 O22        -8.4590   -3.7560   -2.9360 o         1 MOL     -0.716379
    152 O23        -6.9940   -2.8830   -4.3030 o         1 MOL     -0.716379
    153 H65        -5.9090    0.3840   -0.7080 hn        1 MOL      0.398140
    154 H66        -7.4190   -1.7630    0.6000 h1        1 MOL      0.210966
    155 H67        -6.6600   -3.1290   -0.9160 hc        1 MOL      0.077773
    156 H68        -5.4260   -2.0340   -1.6750 hc        1 MOL      0.077773
    157 H69        -7.1190   -0.7470   -2.7340 hc        1 MOL      0.061256
    158 H70        -8.3920   -1.2540   -1.7720 hc        1 MOL      0.061256
    159 N14        -4.5290   -1.3260    1.7760 n         1 MOL     -0.185102
    160 C53        -3.5460   -1.7760    2.8700 c3        1 MOL     -0.032627
    161 C54        -3.9470   -1.2040    4.2240 c         1 MOL      0.417515
    162 O24        -3.7610   -1.8060    5.3150 o         1 MOL     -0.573791
    163 C55        -2.0620   -1.4710    2.5430 c3        1 MOL      0.073244
    164 C56        -1.5430   -2.1320    1.2130 c3        1 MOL     -0.054220
    165 C57        -0.2780   -1.3450    0.8210 c         1 MOL      0.888500
    166 O25         0.0020   -0.1940    1.1890 o         1 MOL     -0.831814
    167 O26         0.5190   -1.8510    0.0050 o         1 MOL     -0.831814
    168 H71        -4.4110   -0.3610    1.4840 hn        1 MOL     -0.056368
    169 H72        -3.4900   -2.8570    2.7640 h1        1 MOL      0.090372
    170 H73        -1.5010   -1.9200    3.3530 hc        1 MOL     -0.001829
    171 H74        -1.9440   -0.3870    2.4560 hc        1 MOL     -0.001829
    172 H75        -2.2710   -2.0860    0.4070 hc        1 MOL      0.025625
    173 H76        -1.1920   -3.1690    1.3040 hc        1 MOL      0.025625
    174 N15        -4.6090   -0.0780    4.1510 n         1 MOL     -0.104007
    175 C58        -5.1740    0.7180    5.2510 c3        1 MOL     -0.081259
    176 H77        -6.2460    0.8420    5.0960 h1        1 MOL      0.047673
    177 H78        -5.0010    0.2070    6.1970 h1        1 MOL      0.047673
    178 H79        -4.6960    1.6980    5.2740 h1        1 MOL      0.047673
    179 H80        -4.4920    0.4870    3.3160 hn        1 MOL      0.121276
    180 Ca1         2.6000   -0.1750    0.1590 Ca        1 MOL      1.723210
    181 O27         5.3770   -0.1350    1.4100 oh        1 MOL     -0.853621
    182 H81         5.3870   -0.0490    2.3660 ho        1 MOL      0.421973
    183 H82         5.7010   -1.0120    1.2360 ho        1 MOL      0.421973
    184 O28         2.3810   -0.7230    2.7340 oh        1 MOL     -0.853621
    185 H83         2.8840   -0.6160    3.5400 ho        1 MOL      0.421973
    186 H84         1.4720   -0.8100    3.0350 ho        1 MOL      0.421973
    187 O29         1.1250    1.2080   -1.7310 oh        1 MOL     -0.853621
    188 H85         1.2000    0.5610   -2.4340 ho        1 MOL      0.421973
    189 H86         1.8180    1.8440   -1.9220 ho        1 MOL      0.421973
@<TRIPOS>BOND
     1    1    2 1   
     2    1    4 1   
     3    1    5 1   
     4    1    6 1   
     5    2    3 2   
     6    2    7 1   
     7    7    8 1   
     8    7   15 1   
     9    8    9 1   
    10    8   11 1   
    11    8   16 1   
    12    9   10 2   
    13    9   19 1   
    14   11   12 1   
    15   11   17 1   
    16   11   18 1   
    17   12   13 1   
    18   12   14 1   
    19   19   20 1   
    20   19   27 1   
    21   20   21 1   
    22   20   23 1   
    23   20   28 1   
    24   21   22 2   
    25   21   38 1   
    26   23   24 1   
    27   23   25 1   
    28   23   29 1   
    29   24   26 1   
    30   24   30 1   
    31   24   31 1   
    32   25   32 1   
    33   25   33 1   
    34   25   34 1   
    35   26   35 1   
    36   26   36 1   
    37   26   37 1   
    38   38   39 1   
    39   38   46 1   
    40   39   40 1   
    41   39   42 1   
    42   39   47 1   
    43   40   41 2   
    44   40   50 1   
    45   42   43 1   
    46   42   48 1   
    47   42   49 1   
    48   43   44 1   
    49   43   45 1   
    50   50   51 1   
    51   50   54 1   
    52   51   52 1   
    53   51   55 1   
    54   51   56 1   
    55   52   53 2   
    56   52   57 1   
    57   57   58 1   
    58   57   65 1   
    59   58   59 1   
    60   58   61 1   
    61   58   66 1   
    62   59   60 2   
    63   59   69 1   
    64   61   62 1   
    65   61   67 1   
    66   61   68 1   
    67   62   63 1   
    68   62   64 1   
    69   69   70 1   
    70   69   73 1   
    71   70   71 1   
    72   70   74 1   
    73   70   75 1   
    74   71   72 2   
    75   71   76 1   
    76   76   77 1   
    77   76   85 1   
    78   77   78 1   
    79   77   80 1   
    80   77   86 1   
    81   78   79 2   
    82   78   93 1   
    83   80   81 1   
    84   80   87 1   
    85   80   88 1   
    86   81   82 1   
    87   81   89 1   
    88   81   90 1   
    89   82   83 1   
    90   82   84 2   
    91   83   91 1   
    92   83   92 1   
    93   93   94 1   
    94   93  100 1   
    95   94   95 1   
    96   94   97 1   
    97   94  101 1   
    98   95   96 2   
    99   95  109 1   
   100   97   98 1   
   101   97   99 1   
   102   97  102 1   
   103   98  103 1   
   104   98  104 1   
   105   98  105 1   
   106   99  106 1   
   107   99  107 1   
   108   99  108 1   
   109  109  110 1   
   110  109  117 1   
   111  110  111 1   
   112  110  113 1   
   113  110  118 1   
   114  111  112 2   
   115  111  123 1   
   116  113  114 1   
   117  113  119 1   
   118  113  120 1   
   119  114  115 1   
   120  114  116 2   
   121  115  121 1   
   122  115  122 1   
   123  123  124 1   
   124  123  135 1   
   125  124  125 1   
   126  124  127 1   
   127  124  136 1   
   128  125  126 2   
   129  125  144 1   
   130  127  128 1   
   131  127  137 1   
   132  127  138 1   
   133  128  129 ar  
   134  128  130 ar  
   135  129  131 ar  
   136  129  139 1   
   137  130  132 ar  
   138  130  140 1   
   139  131  133 ar  
   140  131  141 1   
   141  132  133 ar  
   142  132  142 1   
   143  133  134 1   
   144  134  143 1   
   145  144  145 1   
   146  144  153 1   
   147  145  146 1   
   148  145  148 1   
   149  145  154 1   
   150  146  147 2   
   151  146  159 1   
   152  148  149 1   
   153  148  155 1   
   154  148  156 1   
   155  149  150 1   
   156  149  157 1   
   157  149  158 1   
   158  150  151 1   
   159  150  152 1   
   160  159  160 1   
   161  159  168 1   
   162  160  161 1   
   163  160  163 1   
   164  160  169 1   
   165  161  162 2   
   166  161  174 1   
   167  163  164 1   
   168  163  170 1   
   169  163  171 1   
   170  164  165 1   
   171  164  172 1   
   172  164  173 1   
   173  165  166 1   
   174  165  167 1   
   175  174  175 1   
   176  174  179 1   
   177  175  176 1   
   178  175  177 1   
   179  175  178 1   
   180  181  182 1   
   181  181  183 1   
   182  184  185 1   
   183  184  186 1   
   184  187  188 1   
   185  187  189 1   
@<TRIPOS>SUBSTRUCTURE
     1 MOL         1 TEMP              0 ****  ****    0 ROOT
