@<TRIPOS>MOLECULE
MOL
  189   185     1     0     0
SMALL
resp


@<TRIPOS>ATOM
      1 C1          1.0230    1.6860    5.4800 c3        1 MOL     -0.219186
      2 C2          0.2870    1.8360    4.1730 c         1 MOL      0.655781
      3 O1          0.9040    2.3510    3.2030 o         1 MOL     -0.623401
      4 H1          1.0610    0.6320    5.7570 hc        1 MOL      0.059856
      5 H2          2.0380    2.0690    5.3730 hc        1 MOL      0.059856
      6 H3          0.5030    2.2460    6.2580 hc        1 MOL      0.059856
      7 N1         -0.9100    1.3570    3.9920 n         1 MOL     -0.480846
      8 C3         -1.5780    1.2720    2.7260 c3        1 MOL      0.092828
      9 C4         -1.9190    2.7320    2.2880 c         1 MOL      0.454756
     10 O2         -2.7090    3.4250    2.9410 o         1 MOL     -0.576126
     11 C5         -2.8660    0.4270    2.8370 c3        1 MOL     -0.225952
     12 C6         -3.6350    0.3540    1.5240 c         1 MOL      0.792027
     13 O3         -3.1350    0.8270    0.4600 o         1 MOL     -0.680903
     14 O4         -4.7310   -0.2080    1.6700 o         1 MOL     -0.680903
     15 H4         -1.4930    1.0410    4.7630 hn        1 MOL      0.293754
     16 H5         -0.9010    0.8590    1.9820 h1        1 MOL     -0.021579
     17 H6         -3.4190    0.6660    3.7470 hc        1 MOL      0.061489
     18 H7         -2.4280   -0.5600    2.9790 hc        1 MOL      0.061489
     19 N2         -1.3730    3.2510    1.1400 n         1 MOL     -0.191701
     20 C7         -1.4230    4.7050    0.8040 c3        1 MOL     -0.130122
     21 C8         -2.5030    5.1010   -0.2750 c         1 MOL      0.530698
     22 O5         -2.7050    6.2620   -0.5550 o         1 MOL     -0.551851
     23 C9          0.0040    5.1830    0.4660 c3        1 MOL      0.193462
     24 C10         0.1240    6.7310    0.3220 c3        1 MOL     -0.025368
     25 C11        -0.2960    7.4910    1.5530 c3        1 MOL     -0.010535
     26 C12         0.4720    7.1060    2.8280 c3        1 MOL      0.058443
     27 N3         -0.1980    7.6610    4.0590 n4        1 MOL     -0.417037
     28 H8         -0.6460    2.7600    0.6310 hn        1 MOL      0.195688
     29 H9         -1.7200    5.2160    1.7220 h1        1 MOL      0.097276
     30 H10         0.2600    4.7510   -0.4980 hc        1 MOL     -0.007682
     31 H11         0.7370    4.8680    1.1950 hc        1 MOL     -0.007682
     32 H12        -0.3490    7.1130   -0.5800 hc        1 MOL      0.008053
     33 H13         1.2000    6.8650    0.2130 hc        1 MOL      0.008053
     34 H14        -1.3610    7.3020    1.6900 hc        1 MOL      0.020799
     35 H15        -0.1030    8.5310    1.3130 hc        1 MOL      0.020799
     36 H16         1.4930    7.4600    2.7010 hx        1 MOL      0.063680
     37 H17         0.5470    6.0120    2.8560 hx        1 MOL      0.063680
     38 H18         0.3480    7.3770    4.8650 hn        1 MOL      0.339754
     39 H19        -0.1130    8.6550    4.1510 hn        1 MOL      0.339754
     40 H20        -1.1130    7.3010    4.2700 hn        1 MOL      0.339754
     41 N4         -3.2300    4.1050   -0.8610 n         1 MOL     -0.341865
     42 C13        -4.3720    4.2820   -1.8040 c3        1 MOL      0.145830
     43 C14        -5.6770    3.6400   -1.3180 c         1 MOL      0.433831
     44 O6         -6.7630    4.0310   -1.7780 o         1 MOL     -0.545162
     45 C15        -3.9840    3.8200   -3.2070 c3        1 MOL     -0.345103
     46 C16        -3.2950    2.4910   -3.5210 c         1 MOL      0.853566
     47 O7         -3.2230    1.5550   -2.6920 o         1 MOL     -0.725019
     48 O8         -2.7090    2.2610   -4.6110 o         1 MOL     -0.725019
     49 H21        -2.8990    3.1780   -0.6400 hn        1 MOL      0.148595
     50 H22        -4.6170    5.3470   -1.8330 h1        1 MOL      0.077478
     51 H23        -3.4410    4.6540   -3.6350 hc        1 MOL      0.091224
     52 H24        -4.8720    3.7380   -3.8310 hc        1 MOL      0.091224
     53 N5         -5.6490    2.7680   -0.3270 n         1 MOL     -0.314866
     54 C17        -6.7470    2.1260    0.4680 c3        1 MOL     -0.047769
     55 C18        -7.3840    0.8500   -0.0910 c         1 MOL      0.438680
     56 O9         -8.6020    0.6030    0.0950 o         1 MOL     -0.575951
     57 H25        -4.7200    2.4040   -0.1910 hn        1 MOL      0.184559
     58 H26        -7.4770    2.9040    0.7030 h1        1 MOL      0.095418
     59 H27        -6.3490    1.8590    1.4500 h1        1 MOL      0.095418
     60 N6         -6.6040    0.0240   -0.8200 n         1 MOL     -0.022615
     61 C19        -7.0920   -1.1170   -1.6260 c3        1 MOL     -0.150510
     62 C20        -7.2210   -2.3750   -0.7830 c         1 MOL      0.406403
     63 O10        -7.8370   -3.3860   -1.1900 o         1 MOL     -0.521981
     64 C21        -6.2320   -1.3350   -2.9190 c3        1 MOL     -0.196133
     65 C22        -4.7730   -1.5410   -2.7690 c         1 MOL      0.769177
     66 O11        -4.0620   -1.3520   -3.7460 o         1 MOL     -0.680390
     67 O12        -4.3130   -1.8290   -1.6150 o         1 MOL     -0.680390
     68 H28        -5.6220    0.2300   -0.7220 hn        1 MOL      0.027376
     69 H29        -8.0720   -0.8990   -2.0410 h1        1 MOL      0.147001
     70 H30        -6.3880   -0.4390   -3.5190 hc        1 MOL      0.072731
     71 H31        -6.6190   -2.1720   -3.4850 hc        1 MOL      0.072731
     72 N7         -6.7780   -2.3080    0.4720 n         1 MOL     -0.209597
     73 C23        -6.7810   -3.4450    1.4140 c3        1 MOL     -0.193551
     74 C24        -5.5500   -4.3530    1.2790 c         1 MOL      0.545451
     75 O13        -5.5380   -5.5240    1.7390 o         1 MOL     -0.589021
     76 H32        -6.3250   -1.4380    0.7310 hn        1 MOL      0.262471
     77 H33        -7.6600   -4.0610    1.2660 h1        1 MOL      0.107873
     78 H34        -6.8410   -2.9540    2.3910 h1        1 MOL      0.107873
     79 N8         -4.5030   -3.8900    0.5710 n         1 MOL     -0.175295
     80 C25        -3.2320   -4.5470    0.3640 c3        1 MOL     -0.446279
     81 C26        -2.0220   -3.5760    0.5410 c         1 MOL      0.848075
     82 O14        -2.1180   -2.4020    0.0950 o         1 MOL     -0.723884
     83 C27        -3.2630   -5.2840   -1.0610 c3        1 MOL      0.619658
     84 C28        -3.7350   -6.7820   -1.0440 c3        1 MOL     -0.600034
     85 O15        -3.9510   -4.5970   -2.1510 oh        1 MOL     -0.620183
     86 H35        -4.7060   -2.9700    0.2040 hn        1 MOL      0.176422
     87 H36        -3.0770   -5.2880    1.1440 h1        1 MOL      0.144051
     88 H37        -2.2340   -5.3520   -1.4340 h1        1 MOL     -0.084284
     89 H38        -3.7360   -3.7160   -1.8430 ho        1 MOL      0.417909
     90 H39        -3.7860   -7.1250   -2.0880 hc        1 MOL      0.157911
     91 H40        -3.0420   -7.3520   -0.4370 hc        1 MOL      0.157911
     92 H41        -4.7710   -6.8190   -0.7000 hc        1 MOL      0.157911
     93 N9         -0.8970   -4.0280    1.1230 n         1 MOL     -0.649909
     94 C29         0.3900   -3.3030    1.3810 c3        1 MOL      0.126861
     95 C30         1.4920   -3.8590    0.4930 c         1 MOL      0.450506
     96 O16         1.6620   -5.0610    0.3960 o         1 MOL     -0.555660
     97 C31         0.6720   -3.4470    2.9370 c3        1 MOL      0.232572
     98 C32        -0.4030   -2.8670    3.8780 c3        1 MOL      0.112057
     99 C33         1.9650   -2.6910    3.3440 c3        1 MOL     -0.572007
    100 C34        -0.2770   -3.3420    5.3250 c3        1 MOL     -0.032289
    101 H42        -1.0470   -4.9830    1.4220 hn        1 MOL      0.305746
    102 H43         0.2440   -2.2330    1.2720 h1        1 MOL      0.122542
    103 H44         0.7100   -4.5180    3.1280 hc        1 MOL     -0.022098
    104 H45        -1.3560   -3.2080    3.4610 hc        1 MOL     -0.036866
    105 H46        -0.2640   -1.7840    3.8930 hc        1 MOL     -0.036866
    106 H47         2.7560   -3.4090    3.1190 hc        1 MOL      0.113998
    107 H48         2.0940   -1.7210    2.8640 hc        1 MOL      0.113998
    108 H49         2.0510   -2.5120    4.4140 hc        1 MOL      0.113998
    109 H50        -1.0090   -2.7810    5.9030 hc        1 MOL      0.003215
    110 H51        -0.5600   -4.3940    5.2780 hc        1 MOL      0.003215
    111 H52         0.6970   -3.2780    5.8260 hc        1 MOL      0.003215
    112 N10         2.2580   -2.9620   -0.0810 n         1 MOL     -0.021755
    113 C35         3.5430   -3.1980   -0.8690 c3        1 MOL     -0.007940
    114 C36         4.7970   -3.0710   -0.0160 c         1 MOL      0.351733
    115 O17         4.8330   -2.3460    0.9740 o         1 MOL     -0.285810
    116 C37         3.6210   -2.3440   -2.1550 c3        1 MOL      0.157082
    117 C38         2.4940   -2.4730   -3.1630 c3        1 MOL     -0.656795
    118 O18         3.6990   -1.0360   -1.8500 oh        1 MOL     -0.160649
    119 H53         1.9990   -1.9940    0.0240 hn        1 MOL     -0.019474
    120 H54         3.5580   -4.2390   -1.1780 h1        1 MOL      0.065881
    121 H55         4.5690   -2.5700   -2.6530 h1        1 MOL      0.006300
    122 H56         3.8020   -0.5700   -2.6800 ho        1 MOL      0.299608
    123 H57         2.3840   -3.5250   -3.4600 hc        1 MOL      0.182349
    124 H58         1.5430   -2.1240   -2.7500 hc        1 MOL      0.182349
    125 H59         2.8350   -1.8910   -4.0260 hc        1 MOL      0.182349
    126 N11         5.9040   -3.5690   -0.5600 n         1 MOL     -0.313248
    127 C39         7.2500   -3.2050   -0.0400 c3        1 MOL     -0.184012
    128 C40         7.4410   -1.6420    0.0050 c         1 MOL      0.335012
    129 O19         8.0020   -1.1230    0.9850 o         1 MOL     -0.464918
    130 C41         8.3830   -3.7990   -0.7940 c3        1 MOL      0.358193
    131 C42         8.4030   -5.2580   -0.6370 c3        1 MOL     -0.285560
    132 O20         8.1630   -3.4480   -2.1430 oh        1 MOL     -0.623100
    133 H60         5.8240   -4.2160   -1.3350 hn        1 MOL      0.294994
    134 H61         7.2670   -3.5230    1.0040 h1        1 MOL      0.151060
    135 H62         9.3140   -3.4390   -0.3640 h1        1 MOL      0.047017
    136 H63         8.9690   -3.0820   -2.5150 ho        1 MOL      0.391343
    137 H64         7.5670   -5.7960   -1.0790 hc        1 MOL      0.080305
    138 H65         9.3370   -5.7130   -0.9760 hc        1 MOL      0.080305
    139 H66         8.3930   -5.4400    0.4350 hc        1 MOL      0.080305
    140 N12         6.9210   -0.8650   -0.9970 n         1 MOL     -0.173438
    141 C43         7.1360    0.5870   -0.9210 c3        1 MOL     -0.152043
    142 C44         6.2210    1.3040    0.0660 c         1 MOL      0.440960
    143 O21         6.5000    2.4020    0.6100 o         1 MOL     -0.518486
    144 C45         6.9040    1.2450   -2.2940 c3        1 MOL     -0.188406
    145 C46         7.5620    2.6580   -2.4590 c3        1 MOL      0.322398
    146 C47         7.3880    3.1380   -3.8860 c3        1 MOL     -0.126222
    147 C48         8.0480    4.4980   -3.9860 c3        1 MOL      0.090395
    148 N13         7.8890    5.1180   -5.3330 n4        1 MOL     -0.337575
    149 H67         6.4300   -1.3090   -1.7580 hn        1 MOL      0.212981
    150 H68         8.1740    0.7200   -0.6080 h1        1 MOL      0.140691
    151 H69         5.8240    1.4330   -2.3380 hc        1 MOL      0.037543
    152 H70         7.2020    0.6000   -3.1230 hc        1 MOL      0.037543
    153 H71         8.6150    2.6040   -2.1530 hc        1 MOL     -0.048712
    154 H72         7.1340    3.3160   -1.6960 hc        1 MOL     -0.048712
    155 H73         6.3100    3.1890   -4.0660 hc        1 MOL      0.042413
    156 H74         7.9660    2.4430   -4.4970 hc        1 MOL      0.042413
    157 H75         9.0850    4.3810   -3.6530 hx        1 MOL      0.063826
    158 H76         7.5150    5.1420   -3.2830 hx        1 MOL      0.063826
    159 H77         8.3950    4.5230   -5.9740 hn        1 MOL      0.299273
    160 H78         6.9140    5.1360   -5.5680 hn        1 MOL      0.299273
    161 H79         8.3310    6.0310   -5.3900 hn        1 MOL      0.299273
    162 N14         5.0370    0.6570    0.3510 n         1 MOL      0.262975
    163 C49         4.1090    1.0470    1.3790 c3        1 MOL     -0.574862
    164 C50         4.7560    0.7430    2.7350 c         1 MOL      0.573613
    165 O22         4.8210    1.6100    3.6110 o         1 MOL     -0.560552
    166 C51         2.7260    0.4510    1.0540 c3        1 MOL      0.206609
    167 C52         2.0440    1.3090   -0.0200 c3        1 MOL     -0.069893
    168 C53         0.6190    0.8290   -0.3370 c         1 MOL      0.609945
    169 O23         0.3900   -0.3560   -0.3680 o         1 MOL     -0.647510
    170 O24        -0.1840    1.6120   -0.8220 o         1 MOL     -0.647510
    171 H80         4.9140   -0.2370   -0.1010 hn        1 MOL     -0.269018
    172 H81         3.9590    2.1200    1.3860 h1        1 MOL      0.193920
    173 H82         2.0890    0.4420    1.9410 hc        1 MOL      0.063255
    174 H83         2.7080   -0.5770    0.6990 hc        1 MOL      0.063255
    175 H84         2.6060    1.1520   -0.9350 hc        1 MOL     -0.028702
    176 H85         2.0540    2.3760    0.1980 hc        1 MOL     -0.028702
    177 N15         5.2350   -0.4440    3.0980 n         1 MOL     -0.105070
    178 C54         6.0380   -0.7110    4.3380 c3        1 MOL     -0.399029
    179 H86         5.8950   -1.7460    4.6470 h1        1 MOL      0.138496
    180 H87         7.0940   -0.5350    4.1320 h1        1 MOL      0.138496
    181 H88         5.7070   -0.0450    5.1360 h1        1 MOL      0.138496
    182 H89         5.0890   -1.2590    2.5190 hn        1 MOL      0.164889
    183 Ca1        -2.0310   -0.3200   -1.5250 Ca        1 MOL      1.740601
    184 O25        -1.0870   -2.4230   -3.1090 oh        1 MOL     -0.897919
    185 H90        -1.4710   -3.2020   -3.5000 ho        1 MOL      0.413301
    186 H91        -0.4430   -2.1230   -3.7500 ho        1 MOL      0.413301
    187 O26        -0.8030    0.6180   -3.8700 oh        1 MOL     -0.897919
    188 H92        -0.6730    0.2360   -4.7340 ho        1 MOL      0.413301
    189 H93        -1.4450    1.3160   -4.0140 ho        1 MOL      0.413301
@<TRIPOS>BOND
     1    1    2 1   
     2    1    4 1   
     3    1    5 1   
     4    1    6 1   
     5    2    3 2   
     6    2    7 1   
     7    7    8 1   
     8    7   15 1   
     9    8    9 1   
    10    8   11 1   
    11    8   16 1   
    12    9   10 2   
    13    9   19 1   
    14   11   12 1   
    15   11   17 1   
    16   11   18 1   
    17   12   13 1   
    18   12   14 1   
    19   19   20 1   
    20   19   28 1   
    21   20   21 1   
    22   20   23 1   
    23   20   29 1   
    24   21   22 2   
    25   21   41 1   
    26   23   24 1   
    27   23   30 1   
    28   23   31 1   
    29   24   25 1   
    30   24   32 1   
    31   24   33 1   
    32   25   26 1   
    33   25   34 1   
    34   25   35 1   
    35   26   27 1   
    36   26   36 1   
    37   26   37 1   
    38   27   38 1   
    39   27   39 1   
    40   27   40 1   
    41   41   42 1   
    42   41   49 1   
    43   42   43 1   
    44   42   45 1   
    45   42   50 1   
    46   43   44 2   
    47   43   53 1   
    48   45   46 1   
    49   45   51 1   
    50   45   52 1   
    51   46   47 1   
    52   46   48 1   
    53   53   54 1   
    54   53   57 1   
    55   54   55 1   
    56   54   58 1   
    57   54   59 1   
    58   55   56 2   
    59   55   60 1   
    60   60   61 1   
    61   60   68 1   
    62   61   62 1   
    63   61   64 1   
    64   61   69 1   
    65   62   63 2   
    66   62   72 1   
    67   64   65 1   
    68   64   70 1   
    69   64   71 1   
    70   65   66 1   
    71   65   67 1   
    72   72   73 1   
    73   72   76 1   
    74   73   74 1   
    75   73   77 1   
    76   73   78 1   
    77   74   75 2   
    78   74   79 1   
    79   79   80 1   
    80   79   86 1   
    81   80   81 1   
    82   80   83 1   
    83   80   87 1   
    84   81   82 2   
    85   81   93 1   
    86   83   84 1   
    87   83   85 1   
    88   83   88 1   
    89   84   90 1   
    90   84   91 1   
    91   84   92 1   
    92   85   89 1   
    93   93   94 1   
    94   93  101 1   
    95   94   95 1   
    96   94   97 1   
    97   94  102 1   
    98   95   96 2   
    99   95  112 1   
   100   97   98 1   
   101   97   99 1   
   102   97  103 1   
   103   98  100 1   
   104   98  104 1   
   105   98  105 1   
   106   99  106 1   
   107   99  107 1   
   108   99  108 1   
   109  100  109 1   
   110  100  110 1   
   111  100  111 1   
   112  112  113 1   
   113  112  119 1   
   114  113  114 1   
   115  113  116 1   
   116  113  120 1   
   117  114  115 2   
   118  114  126 1   
   119  116  117 1   
   120  116  118 1   
   121  116  121 1   
   122  117  123 1   
   123  117  124 1   
   124  117  125 1   
   125  118  122 1   
   126  126  127 1   
   127  126  133 1   
   128  127  128 1   
   129  127  130 1   
   130  127  134 1   
   131  128  129 2   
   132  128  140 1   
   133  130  131 1   
   134  130  132 1   
   135  130  135 1   
   136  131  137 1   
   137  131  138 1   
   138  131  139 1   
   139  132  136 1   
   140  140  141 1   
   141  140  149 1   
   142  141  142 1   
   143  141  144 1   
   144  141  150 1   
   145  142  143 2   
   146  142  162 1   
   147  144  145 1   
   148  144  151 1   
   149  144  152 1   
   150  145  146 1   
   151  145  153 1   
   152  145  154 1   
   153  146  147 1   
   154  146  155 1   
   155  146  156 1   
   156  147  148 1   
   157  147  157 1   
   158  147  158 1   
   159  148  159 1   
   160  148  160 1   
   161  148  161 1   
   162  162  163 1   
   163  162  171 1   
   164  163  164 1   
   165  163  166 1   
   166  163  172 1   
   167  164  165 2   
   168  164  177 1   
   169  166  167 1   
   170  166  173 1   
   171  166  174 1   
   172  167  168 1   
   173  167  175 1   
   174  167  176 1   
   175  168  169 1   
   176  168  170 1   
   177  177  178 1   
   178  177  182 1   
   179  178  179 1   
   180  178  180 1   
   181  178  181 1   
   182  184  185 1   
   183  184  186 1   
   184  187  188 1   
   185  187  189 1   
@<TRIPOS>SUBSTRUCTURE
     1 MOL         1 TEMP              0 ****  ****    0 ROOT
