@<TRIPOS>MOLECULE
MOL
  172   171     1     0     0
SMALL
resp


@<TRIPOS>ATOM
      1 C1         -0.7030    3.4700    5.9360 c3        1 MOL     -0.385019
      2 C2         -0.8380    3.3190    4.3980 c         1 MOL      0.728533
      3 O1         -0.0880    3.9610    3.6510 o         1 MOL     -0.570839
      4 H1         -0.2910    4.4510    6.1690 hc        1 MOL      0.091359
      5 H2         -1.6840    3.3680    6.3990 hc        1 MOL      0.091359
      6 H3         -0.0370    2.6960    6.3200 hc        1 MOL      0.091359
      7 N1         -1.7290    2.4060    3.9260 n         1 MOL     -0.590421
      8 C3         -2.1490    2.1290    2.5630 c3        1 MOL      0.079104
      9 C4         -2.6710    3.3820    1.8820 c         1 MOL      0.675230
     10 O2         -3.3510    4.2060    2.4660 o         1 MOL     -0.605715
     11 C5         -3.2050    1.0580    2.6580 c3        1 MOL     -0.279071
     12 C6         -3.9610    0.6880    1.3620 c         1 MOL      0.735854
     13 O3         -3.4850    1.0770    0.2090 o         1 MOL     -0.671991
     14 O4         -4.9680   -0.0390    1.5000 o         1 MOL     -0.671991
     15 H4         -2.3350    1.9730    4.6110 hn        1 MOL      0.299327
     16 H5         -1.2480    1.7960    2.0520 h1        1 MOL      0.083478
     17 H6         -3.8410    1.2180    3.5250 hc        1 MOL      0.064757
     18 H7         -2.6750    0.1220    2.8530 hc        1 MOL      0.064757
     19 N2         -2.1920    3.5680    0.6390 n         1 MOL     -0.368298
     20 C7         -2.2060    4.9140   -0.0160 c3        1 MOL      0.165108
     21 C8         -3.2150    4.9470   -1.1550 c         1 MOL      0.340453
     22 O5         -3.6660    6.1180   -1.4610 o         1 MOL     -0.561199
     23 C9         -0.7600    5.1150   -0.6020 c3        1 MOL     -0.228341
     24 H8         -1.8050    2.7730    0.1430 hn        1 MOL      0.058037
     25 H9         -2.4930    5.7170    0.6680 h1        1 MOL      0.074102
     26 H10        -0.0900    4.9450    0.2340 hc        1 MOL      0.064756
     27 H11        -0.4890    4.3230   -1.3000 hc        1 MOL      0.064756
     28 H12        -0.6290    6.1270   -0.9800 hc        1 MOL      0.064756
     29 N3         -3.6500    3.7540   -1.6740 n         1 MOL     -0.267066
     30 C10        -4.8430    3.7030   -2.6040 c3        1 MOL      0.263673
     31 C11        -6.0630    3.2700   -1.7330 c         1 MOL      0.314120
     32 O6         -7.2040    3.4310   -2.1710 o         1 MOL     -0.558043
     33 C12        -4.5040    2.7950   -3.7720 c3        1 MOL     -0.412183
     34 C13        -3.6660    1.5890   -3.6200 c         1 MOL      0.863069
     35 O7         -3.4960    1.0030   -2.5250 o         1 MOL     -0.763149
     36 O8         -3.1540    1.0240   -4.6370 o         1 MOL     -0.763149
     37 H13        -3.2700    2.8690   -1.3790 hn        1 MOL      0.268072
     38 H14        -5.1000    4.6790   -3.0070 h1        1 MOL      0.040641
     39 H15        -3.9090    3.4610   -4.3950 hc        1 MOL      0.093462
     40 H16        -5.4580    2.5310   -4.2120 hc        1 MOL      0.093462
     41 N4         -5.8870    2.5350   -0.6610 n         1 MOL     -0.057487
     42 C14        -7.0040    2.1030    0.1490 c3        1 MOL     -0.181576
     43 C15        -7.5220    0.7230   -0.2480 c         1 MOL      0.538185
     44 O9         -8.6560    0.3090    0.0490 o         1 MOL     -0.601351
     45 H17        -4.9390    2.4230   -0.3220 hn        1 MOL      0.067529
     46 H18        -7.8800    2.7660    0.1490 h1        1 MOL      0.101210
     47 H19        -6.7460    1.9250    1.1960 h1        1 MOL      0.101210
     48 N5         -6.6820   -0.0690   -0.9200 n         1 MOL     -0.228921
     49 C16        -7.0800   -1.4340   -1.3800 c3        1 MOL     -0.107036
     50 C17        -7.1590   -2.6120   -0.4150 c         1 MOL      0.492674
     51 O10        -7.6500   -3.6510   -0.7220 o         1 MOL     -0.559184
     52 C18        -6.1550   -1.7870   -2.5500 c3        1 MOL     -0.208273
     53 C19        -4.8420   -2.3960   -2.1020 c         1 MOL      0.595165
     54 N6         -4.4810   -3.6010   -2.5080 n         1 MOL     -0.682165
     55 O11        -4.1550   -1.8290   -1.2280 o         1 MOL     -0.500428
     56 H20        -5.7220    0.1740   -1.1560 hn        1 MOL      0.239174
     57 H21        -8.0620   -1.3410   -1.8330 h1        1 MOL      0.126597
     58 H22        -5.8950   -0.8150   -2.9790 hc        1 MOL      0.078341
     59 H23        -6.7010   -2.4760   -3.1960 hc        1 MOL      0.078341
     60 H24        -5.0190   -4.1210   -3.1870 hn        1 MOL      0.338971
     61 H25        -3.6650   -3.9240   -2.0250 hn        1 MOL      0.338971
     62 N7         -6.5820   -2.5380    0.7500 n         1 MOL     -0.216302
     63 C20        -6.3340   -3.6540    1.6600 c3        1 MOL     -0.130441
     64 C21        -5.0310   -4.3910    1.6190 c         1 MOL      0.540109
     65 O12        -4.9620   -5.5520    2.0000 o         1 MOL     -0.581258
     66 H26        -6.1030   -1.6750    0.9790 hn        1 MOL      0.218000
     67 H27        -7.0690   -4.4360    1.4250 h1        1 MOL      0.080380
     68 H28        -6.5060   -3.3930    2.7030 h1        1 MOL      0.080380
     69 N8         -4.0050   -3.6870    1.1450 n         1 MOL     -0.208154
     70 C22        -2.5800   -4.1090    1.2640 c3        1 MOL     -0.221679
     71 C23        -1.7040   -2.9220    1.5890 c         1 MOL      0.687347
     72 O13        -2.0490   -1.8200    1.2930 o         1 MOL     -0.598257
     73 C24        -2.0970   -4.8950    0.0340 c3        1 MOL      0.328875
     74 C25        -3.0430   -5.9930   -0.5010 c3        1 MOL     -0.432687
     75 O14        -1.9530   -3.9100   -0.9980 oh        1 MOL     -0.602690
     76 H29        -4.2700   -2.7940    0.7520 hn        1 MOL      0.206268
     77 H30        -2.5090   -4.7290    2.1530 h1        1 MOL      0.098130
     78 H31        -1.1040   -5.3220    0.1620 h1        1 MOL      0.030908
     79 H32        -1.1330   -4.0390   -1.4790 ho        1 MOL      0.398179
     80 H33        -3.0420   -6.8270    0.1930 hc        1 MOL      0.120447
     81 H34        -4.0270   -5.5150   -0.4630 hc        1 MOL      0.120447
     82 H35        -2.7360   -6.3620   -1.4790 hc        1 MOL      0.120447
     83 N9         -0.5100   -3.2040    2.0830 n         1 MOL     -0.571855
     84 C26         0.6280   -2.2670    2.1380 c3        1 MOL      0.111087
     85 C27         1.6630   -2.6170    1.0940 c         1 MOL      0.471830
     86 O15         2.0410   -3.7580    1.0250 o         1 MOL     -0.586831
     87 C28         1.1690   -2.0470    3.5400 c3        1 MOL      0.267540
     88 C29         0.0680   -1.7460    4.6250 c3        1 MOL      0.011640
     89 C30         2.2690   -0.9790    3.4710 c3        1 MOL     -0.404395
     90 C31         0.6110   -1.8900    6.0730 c3        1 MOL     -0.123410
     91 H36        -0.3770   -4.1530    2.4170 hn        1 MOL      0.276618
     92 H37         0.2420   -1.2850    1.8630 h1        1 MOL      0.087130
     93 H38         1.6430   -2.9850    3.8450 hc        1 MOL     -0.062304
     94 H39        -0.8290   -2.3710    4.5110 hc        1 MOL      0.007821
     95 H40        -0.2730   -0.7230    4.5170 hc        1 MOL      0.007821
     96 H41         3.1270   -1.3970    2.9360 hc        1 MOL      0.093904
     97 H42         1.8120   -0.1780    2.9020 hc        1 MOL      0.093904
     98 H43         2.5590   -0.7030    4.4840 hc        1 MOL      0.093904
     99 H44        -0.2170   -1.7850    6.7620 hc        1 MOL      0.020878
    100 H45         0.9010   -2.9240    6.2690 hc        1 MOL      0.020878
    101 H46         1.4530   -1.2520    6.3230 hc        1 MOL      0.020878
    102 N10         2.1210   -1.6850    0.2800 n         1 MOL     -0.188064
    103 C32         3.0900   -1.9720   -0.7610 c3        1 MOL      0.091419
    104 C33         4.4970   -1.6040   -0.1810 c         1 MOL      0.478971
    105 O16         4.6400   -0.7620    0.7280 o         1 MOL     -0.380906
    106 C34         2.7430   -1.3570   -2.1390 c3        1 MOL     -0.332705
    107 C35         1.2050   -1.2210   -2.4730 c         1 MOL      0.759423
    108 O17         0.8540   -0.5710   -3.5070 o         1 MOL     -0.692556
    109 O18         0.2980   -1.8250   -1.8250 o         1 MOL     -0.692556
    110 H47         1.7610   -0.7500    0.2320 hn        1 MOL      0.028148
    111 H48         3.1280   -3.0510   -0.9360 h1        1 MOL      0.064383
    112 H49         3.2210   -1.9270   -2.9300 hc        1 MOL      0.091806
    113 H50         3.1550   -0.3560   -2.2480 hc        1 MOL      0.091806
    114 N11         5.5780   -2.1920   -0.7540 n         1 MOL     -0.704395
    115 C36         6.9600   -1.7800   -0.4760 c3        1 MOL      0.537510
    116 C37         7.1530   -0.2750   -0.5120 c         1 MOL      0.305699
    117 O19         7.5950    0.3100    0.5080 o         1 MOL     -0.477831
    118 C38         7.9850   -2.5970   -1.2740 c3        1 MOL     -0.257372
    119 C39         9.4280   -2.0620   -1.0340 ca        1 MOL      0.104161
    120 C40         9.9540   -1.7070    0.2220 ca        1 MOL     -0.184367
    121 C41        10.2590   -1.9180   -2.2280 ca        1 MOL     -0.184367
    122 C42        11.2050   -1.1130    0.2900 ca        1 MOL     -0.104907
    123 C43        11.4870   -1.2000   -2.1170 ca        1 MOL     -0.104907
    124 C44        11.9380   -0.7760   -0.8500 ca        1 MOL     -0.123226
    125 H51         5.3530   -2.9360   -1.3980 hn        1 MOL      0.317312
    126 H52         7.0640   -2.0900    0.5620 h1        1 MOL      0.008020
    127 H53         7.8810   -2.5040   -2.3530 hc        1 MOL      0.069460
    128 H54         8.0220   -3.6470   -0.9980 hc        1 MOL      0.069460
    129 H55         9.3030   -1.7490    1.0800 ha        1 MOL      0.118114
    130 H56         9.8380   -2.2930   -3.1580 ha        1 MOL      0.118114
    131 H57        11.5170   -0.8440    1.2980 ha        1 MOL      0.113301
    132 H58        12.0600   -1.0040   -3.0100 ha        1 MOL      0.113301
    133 H59        12.8480   -0.1930   -0.7740 ha        1 MOL      0.106930
    134 N12         6.7580    0.4680   -1.5510 n         1 MOL     -0.028360
    135 C45         6.8370    1.9100   -1.5650 c3        1 MOL     -0.061739
    136 C46         5.8630    2.6960   -0.6360 c         1 MOL      0.277264
    137 O20         6.1190    3.8470   -0.2660 o         1 MOL     -0.506749
    138 C47         6.6740    2.2570   -3.0920 c3        1 MOL      0.033832
    139 C48         6.9310    1.0200   -3.8780 c3        1 MOL      0.038503
    140 C49         6.3900   -0.0210   -2.9010 c3        1 MOL     -0.240445
    141 H60         7.8530    2.1650   -1.2790 h1        1 MOL      0.095025
    142 H61         5.6240    2.5270   -3.1910 hc        1 MOL      0.023941
    143 H62         7.2800    3.0540   -3.5180 hc        1 MOL      0.023941
    144 H63         6.4690    0.9920   -4.8610 hc        1 MOL      0.013968
    145 H64         8.0130    1.0080   -3.9900 hc        1 MOL      0.013968
    146 H65         5.3010   -0.1350   -2.9520 h1        1 MOL      0.091435
    147 H66         6.6930   -1.0470   -3.0790 h1        1 MOL      0.091435
    148 N13         4.8160    2.0650   -0.1530 n         1 MOL     -0.074901
    149 C50         3.8110    2.6160    0.8720 c3        1 MOL     -0.167976
    150 C51         4.3330    2.4550    2.3090 c         1 MOL      0.463942
    151 O21         4.0190    3.1710    3.2240 o         1 MOL     -0.533357
    152 C52         2.4470    1.9230    0.8500 c3        1 MOL     -0.002651
    153 C53         1.8890    1.9680   -0.5520 c3        1 MOL     -0.101827
    154 C54         0.4450    1.4780   -0.5980 c         1 MOL      0.819138
    155 O22         0.1320    0.5670    0.1750 o         1 MOL     -0.739507
    156 O23        -0.3540    1.7580   -1.5400 o         1 MOL     -0.739507
    157 H67         4.6460    1.1580   -0.5560 hn        1 MOL      0.179685
    158 H68         3.6650    3.6710    0.6120 h1        1 MOL      0.138558
    159 H69         1.7330    2.3580    1.5580 hc        1 MOL      0.068523
    160 H70         2.4800    0.8830    1.1710 hc        1 MOL      0.068523
    161 H71         2.4440    1.3830   -1.2860 hc        1 MOL      0.015857
    162 H72         1.8200    2.9890   -0.9330 hc        1 MOL      0.015857
    163 N14         5.1980    1.4250    2.5110 n         1 MOL     -0.051842
    164 C55         5.9450    1.2290    3.7590 c3        1 MOL     -0.192496
    165 H73         6.1830    2.2000    4.1960 h1        1 MOL      0.074059
    166 H74         5.3400    0.6540    4.4590 h1        1 MOL      0.074059
    167 H75         6.8700    0.6900    3.5490 h1        1 MOL      0.074059
    168 H76         5.3230    0.7710    1.7510 hn        1 MOL      0.032325
    169 Ca1        -1.9130   -0.4780   -1.1560 Ca        1 MOL      1.690412
    170 O24        -1.8940   -1.1940   -3.7160 oh        1 MOL     -1.003877
    171 H77        -2.5430   -0.5830   -4.0610 ho        1 MOL      0.472602
    172 H78        -1.0470   -0.7970   -3.9450 ho        1 MOL      0.472602
@<TRIPOS>BOND
     1    1    2 1   
     2    1    4 1   
     3    1    5 1   
     4    1    6 1   
     5    2    3 2   
     6    2    7 1   
     7    7    8 1   
     8    7   15 1   
     9    8    9 1   
    10    8   11 1   
    11    8   16 1   
    12    9   10 2   
    13    9   19 1   
    14   11   12 1   
    15   11   17 1   
    16   11   18 1   
    17   12   13 1   
    18   12   14 1   
    19   19   20 1   
    20   19   24 1   
    21   20   21 1   
    22   20   23 1   
    23   20   25 1   
    24   21   22 2   
    25   21   29 1   
    26   23   26 1   
    27   23   27 1   
    28   23   28 1   
    29   29   30 1   
    30   29   37 1   
    31   30   31 1   
    32   30   33 1   
    33   30   38 1   
    34   31   32 2   
    35   31   41 1   
    36   33   34 1   
    37   33   39 1   
    38   33   40 1   
    39   34   35 1   
    40   34   36 1   
    41   41   42 1   
    42   41   45 1   
    43   42   43 1   
    44   42   46 1   
    45   42   47 1   
    46   43   44 2   
    47   43   48 1   
    48   48   49 1   
    49   48   56 1   
    50   49   50 1   
    51   49   52 1   
    52   49   57 1   
    53   50   51 2   
    54   50   62 1   
    55   52   53 1   
    56   52   58 1   
    57   52   59 1   
    58   53   54 1   
    59   53   55 2   
    60   54   60 1   
    61   54   61 1   
    62   62   63 1   
    63   62   66 1   
    64   63   64 1   
    65   63   67 1   
    66   63   68 1   
    67   64   65 2   
    68   64   69 1   
    69   69   70 1   
    70   69   76 1   
    71   70   71 1   
    72   70   73 1   
    73   70   77 1   
    74   71   72 2   
    75   71   83 1   
    76   73   74 1   
    77   73   75 1   
    78   73   78 1   
    79   74   80 1   
    80   74   81 1   
    81   74   82 1   
    82   75   79 1   
    83   83   84 1   
    84   83   91 1   
    85   84   85 1   
    86   84   87 1   
    87   84   92 1   
    88   85   86 2   
    89   85  102 1   
    90   87   88 1   
    91   87   89 1   
    92   87   93 1   
    93   88   90 1   
    94   88   94 1   
    95   88   95 1   
    96   89   96 1   
    97   89   97 1   
    98   89   98 1   
    99   90   99 1   
   100   90  100 1   
   101   90  101 1   
   102  102  103 1   
   103  102  110 1   
   104  103  104 1   
   105  103  106 1   
   106  103  111 1   
   107  104  105 2   
   108  104  114 1   
   109  106  107 1   
   110  106  112 1   
   111  106  113 1   
   112  107  108 1   
   113  107  109 1   
   114  114  115 1   
   115  114  125 1   
   116  115  116 1   
   117  115  118 1   
   118  115  126 1   
   119  116  117 2   
   120  116  134 1   
   121  118  119 1   
   122  118  127 1   
   123  118  128 1   
   124  119  120 ar  
   125  119  121 ar  
   126  120  122 ar  
   127  120  129 1   
   128  121  123 ar  
   129  121  130 1   
   130  122  124 ar  
   131  122  131 1   
   132  123  124 ar  
   133  123  132 1   
   134  124  133 1   
   135  134  135 1   
   136  134  140 1   
   137  135  136 1   
   138  135  138 1   
   139  135  141 1   
   140  136  137 2   
   141  136  148 1   
   142  138  139 1   
   143  138  142 1   
   144  138  143 1   
   145  139  140 1   
   146  139  144 1   
   147  139  145 1   
   148  140  146 1   
   149  140  147 1   
   150  148  149 1   
   151  148  157 1   
   152  149  150 1   
   153  149  152 1   
   154  149  158 1   
   155  150  151 2   
   156  150  163 1   
   157  152  153 1   
   158  152  159 1   
   159  152  160 1   
   160  153  154 1   
   161  153  161 1   
   162  153  162 1   
   163  154  155 1   
   164  154  156 1   
   165  163  164 1   
   166  163  168 1   
   167  164  165 1   
   168  164  166 1   
   169  164  167 1   
   170  170  171 1   
   171  170  172 1   
@<TRIPOS>SUBSTRUCTURE
     1 MOL         1 TEMP              0 ****  ****    0 ROOT
