@<TRIPOS>MOLECULE
MOL
  189   185     1     0     0
SMALL
resp


@<TRIPOS>ATOM
      1 C1          0.0650    2.4680    6.0450 c3        1 MOL     -0.395865
      2 C2         -0.2090    2.2170    4.5850 c         1 MOL      0.804165
      3 O1          0.5760    2.7010    3.7640 o         1 MOL     -0.647048
      4 H1          0.5700    3.4270    6.1600 hc        1 MOL      0.097209
      5 H2         -0.8770    2.4860    6.5940 hc        1 MOL      0.097209
      6 H3          0.7000    1.6740    6.4380 hc        1 MOL      0.097209
      7 N1         -1.2840    1.5400    4.3050 n         1 MOL     -0.720040
      8 C3         -1.9110    1.4130    3.0350 c3        1 MOL      0.277553
      9 C4         -2.3000    2.8170    2.5240 c         1 MOL      0.560741
     10 O2         -3.2940    3.4190    2.9600 o         1 MOL     -0.600844
     11 C5         -3.1650    0.4680    3.0100 c3        1 MOL     -0.111970
     12 C6         -3.8240    0.3860    1.6430 c         1 MOL      0.615399
     13 O3         -3.3470    0.8340    0.6290 o         1 MOL     -0.599101
     14 O4         -4.7840   -0.3850    1.6840 o         1 MOL     -0.599101
     15 H4         -1.7990    1.3290    5.1410 hn        1 MOL      0.348946
     16 H5         -1.1500    1.1070    2.3080 h1        1 MOL     -0.082301
     17 H6         -3.8730    0.7210    3.7960 hc        1 MOL      0.027927
     18 H7         -2.7850   -0.5370    3.1830 hc        1 MOL      0.027927
     19 N2         -1.5110    3.3800    1.6510 n         1 MOL     -0.306849
     20 C7         -1.5700    4.8610    1.2450 c3        1 MOL      0.014698
     21 C8         -2.4350    5.0890    0.0300 c         1 MOL      0.556971
     22 O5         -2.8640    6.2400   -0.1650 o         1 MOL     -0.598465
     23 C9         -0.0830    5.3600    1.1690 c3        1 MOL     -0.175612
     24 C10         0.0440    6.7870    0.5510 c3        1 MOL      0.028520
     25 C11         1.5020    7.2530    0.6200 c3        1 MOL      0.033365
     26 C12         1.8060    8.5680   -0.0440 c3        1 MOL     -0.042117
     27 N3          1.1420    9.7650    0.6050 n4        1 MOL     -0.375633
     28 H8         -0.7110    2.8460    1.3270 hn        1 MOL      0.195210
     29 H9         -1.9970    5.3860    2.0970 h1        1 MOL      0.089810
     30 H10         0.3880    4.6920    0.4470 hc        1 MOL      0.090087
     31 H11         0.3880    5.3220    2.1460 hc        1 MOL      0.090087
     32 H12        -0.6570    7.4660    1.0250 hc        1 MOL      0.012304
     33 H13        -0.1730    6.7440   -0.5210 hc        1 MOL      0.012304
     34 H14         2.2370    6.5950    0.1560 hc        1 MOL      0.033260
     35 H15         1.7420    7.3490    1.6710 hc        1 MOL      0.033260
     36 H16         1.6400    8.5410   -1.1220 hx        1 MOL      0.102327
     37 H17         2.8810    8.6600    0.0980 hx        1 MOL      0.102327
     38 H18         0.1550    9.5990    0.7200 hn        1 MOL      0.331259
     39 H19         1.4910   10.0520    1.5090 hn        1 MOL      0.331259
     40 H20         1.1240   10.5620   -0.0080 hn        1 MOL      0.331259
     41 N4         -2.8520    4.0010   -0.7110 n         1 MOL     -0.528667
     42 C13        -3.8060    4.1470   -1.9000 c3        1 MOL      0.123142
     43 C14        -5.1120    3.4090   -1.6650 c         1 MOL      0.337613
     44 O6         -5.9980    3.3730   -2.5070 o         1 MOL     -0.483914
     45 C15        -3.0700    3.6940   -3.1530 c3        1 MOL     -0.155724
     46 C16        -2.4000    2.3520   -3.1350 c         1 MOL      0.986364
     47 O7         -2.5970    1.6250   -2.1520 o         1 MOL     -0.836937
     48 O8         -1.4440    2.0400   -3.8920 o         1 MOL     -0.836937
     49 H21        -2.4000    3.1020   -0.6170 hn        1 MOL      0.329757
     50 H22        -3.9400    5.2260   -2.0480 h1        1 MOL      0.085805
     51 H23        -2.3400    4.4750   -3.3790 hc        1 MOL      0.009280
     52 H24        -3.8200    3.6620   -3.9470 hc        1 MOL      0.009280
     53 N5         -5.3140    2.7150   -0.5230 n         1 MOL      0.082187
     54 C17        -6.5280    2.0490   -0.1360 c3        1 MOL     -0.629946
     55 C18        -6.9530    0.9110   -1.0500 c         1 MOL      0.990620
     56 O9         -7.6090    1.0910   -2.0340 o         1 MOL     -0.572626
     57 H25        -4.4980    2.5230    0.0440 hn        1 MOL      0.105156
     58 H26        -7.3300    2.7910   -0.1010 h1        1 MOL      0.162809
     59 H27        -6.2190    1.6010    0.8070 h1        1 MOL      0.162809
     60 N6         -6.5890   -0.3920   -0.6000 n         1 MOL     -0.801567
     61 C19        -6.9590   -1.6930   -1.2010 c3        1 MOL      0.156513
     62 C20        -6.9840   -2.8090   -0.1630 c         1 MOL      0.471954
     63 O10        -7.5080   -3.8390   -0.4640 o         1 MOL     -0.528804
     64 C21        -6.0250   -1.9620   -2.4290 c3        1 MOL     -0.082467
     65 C22        -4.6050   -1.6330   -2.1490 c         1 MOL      0.579260
     66 O11        -4.0360   -0.8700   -2.9510 o         1 MOL     -0.648950
     67 O12        -4.0330   -2.0000   -1.1070 o         1 MOL     -0.648950
     68 H28        -5.8750   -0.4410    0.1030 hn        1 MOL      0.320587
     69 H29        -7.9920   -1.6850   -1.5550 h1        1 MOL      0.044433
     70 H30        -6.3380   -1.3800   -3.2890 hc        1 MOL      0.027753
     71 H31        -6.1220   -3.0240   -2.6330 hc        1 MOL      0.027753
     72 N7         -6.5120   -2.5440    1.0400 n         1 MOL     -0.233574
     73 C23        -6.1120   -3.4910    2.1160 c3        1 MOL     -0.124383
     74 C24        -4.9660   -4.4750    1.8680 c         1 MOL      0.587646
     75 O13        -5.0290   -5.6030    2.2950 o         1 MOL     -0.563092
     76 H32        -6.2830   -1.5880    1.2610 hn        1 MOL      0.178500
     77 H33        -6.9560   -4.1400    2.3600 h1        1 MOL      0.071626
     78 H34        -5.7870   -2.9260    2.9900 h1        1 MOL      0.071626
     79 N8         -4.0340   -4.0180    1.0320 n         1 MOL     -0.309975
     80 C25        -2.7730   -4.6920    0.7450 c3        1 MOL     -0.149404
     81 C26        -1.5680   -3.7030    0.8570 c         1 MOL      0.758393
     82 O14        -1.7320   -2.4890    0.7750 o         1 MOL     -0.676069
     83 C27        -2.7760   -5.2770   -0.7280 c3        1 MOL      0.518867
     84 C28        -3.1870   -6.7600   -0.6000 c3        1 MOL     -0.598875
     85 O15        -3.7800   -4.7020   -1.5180 oh        1 MOL     -0.601011
     86 H35        -4.1210   -3.0900    0.6400 hn        1 MOL      0.191699
     87 H36        -2.5490   -5.4650    1.4830 h1        1 MOL      0.086034
     88 H37        -1.7660   -5.1320   -1.0880 h1        1 MOL     -0.052243
     89 H38        -4.1290   -3.9220   -1.0730 ho        1 MOL      0.397191
     90 H39        -4.2400   -6.8640   -0.3160 hc        1 MOL      0.150009
     91 H40        -3.1710   -7.2560   -1.5740 hc        1 MOL      0.150009
     92 H41        -2.5480   -7.2680    0.1220 hc        1 MOL      0.150009
     93 N9         -0.3510   -4.3000    0.9830 n         1 MOL     -0.643333
     94 C29         0.8840   -3.5710    1.3100 c3        1 MOL      0.212884
     95 C30         1.9180   -3.9910    0.2620 c         1 MOL      0.478078
     96 O16         2.1540   -5.1670   -0.1270 o         1 MOL     -0.558415
     97 C31         1.2880   -3.8010    2.8060 c3        1 MOL      0.033140
     98 C32         0.2840   -3.3080    3.9220 c3        1 MOL     -0.294421
     99 C33         2.6620   -3.1850    3.1150 c3        1 MOL     -0.287897
    100 C34        -0.0490   -1.8250    3.8140 c3        1 MOL      0.239134
    101 H42        -0.3920   -5.3120    1.0040 hn        1 MOL      0.309540
    102 H43         0.6990   -2.5090    1.1670 h1        1 MOL      0.034848
    103 H44         1.5150   -4.8660    2.8760 hc        1 MOL      0.033529
    104 H45         0.7150   -3.4900    4.9070 hc        1 MOL      0.086647
    105 H46        -0.6830   -3.7850    3.7740 hc        1 MOL      0.086647
    106 H47         2.5610   -2.1020    3.0150 hc        1 MOL      0.069120
    107 H48         2.7880   -3.2690    4.1890 hc        1 MOL      0.069120
    108 H49         3.4650   -3.5150    2.4570 hc        1 MOL      0.069120
    109 H50        -0.7210   -1.6380    4.6590 hc        1 MOL     -0.035981
    110 H51         0.7950   -1.1370    3.8780 hc        1 MOL     -0.035981
    111 H52        -0.5650   -1.6490    2.8760 hc        1 MOL     -0.035981
    112 N10         2.6010   -2.9770   -0.2360 n         1 MOL     -0.167757
    113 C35         3.6030   -2.9460   -1.2630 c3        1 MOL      0.103070
    114 C36         4.8820   -2.4130   -0.6940 c         1 MOL      0.233191
    115 O17         4.9450   -1.8630    0.4490 o         1 MOL     -0.296856
    116 C37         3.0930   -2.2280   -2.5330 c3        1 MOL      0.165153
    117 C38         1.8900   -2.9030   -3.2860 c3        1 MOL     -0.493583
    118 O18         2.7840   -0.8920   -2.1160 oh        1 MOL     -0.604917
    119 H53         2.4200   -2.0320    0.0740 hn        1 MOL      0.103335
    120 H54         3.7340   -3.9900   -1.5610 h1        1 MOL      0.070473
    121 H55         3.9500   -2.1360   -3.1960 h1        1 MOL      0.025666
    122 H56         1.9020   -0.9730   -1.7630 ho        1 MOL      0.385069
    123 H57         1.9470   -3.9660   -3.0650 hc        1 MOL      0.158920
    124 H58         0.9390   -2.5180   -2.9220 hc        1 MOL      0.158920
    125 H59         1.9700   -2.6760   -4.3490 hc        1 MOL      0.158920
    126 N11         6.0630   -2.7580   -1.3470 n         1 MOL     -0.281818
    127 C39         7.3230   -2.3320   -0.7200 c3        1 MOL     -0.012984
    128 C40         7.4420   -0.8090   -0.5140 c         1 MOL      0.392706
    129 O19         7.9950   -0.4140    0.5090 o         1 MOL     -0.476816
    130 C41         8.4410   -2.9680   -1.4980 c3        1 MOL      0.369499
    131 C42         9.6420   -3.1960   -0.5940 c3        1 MOL     -0.352515
    132 O20         8.1130   -4.2490   -1.8890 oh        1 MOL     -0.614303
    133 H60         6.0750   -3.3520   -2.1680 hn        1 MOL      0.229035
    134 H61         7.3690   -2.6720    0.3060 h1        1 MOL      0.129340
    135 H62         8.6670   -2.2690   -2.3040 h1        1 MOL     -0.050077
    136 H63         8.8450   -4.6400   -2.3810 ho        1 MOL      0.406610
    137 H64        10.0090   -2.2440   -0.2100 hc        1 MOL      0.094493
    138 H65         9.2950   -3.7890    0.2460 hc        1 MOL      0.094493
    139 H66        10.4390   -3.6850   -1.1480 hc        1 MOL      0.094493
    140 N12         6.8240    0.0210   -1.3800 n         1 MOL     -0.227785
    141 C43         6.8410    1.4650   -1.1760 c3        1 MOL     -0.052928
    142 C44         6.1040    1.9350    0.0710 c         1 MOL      0.378623
    143 O21         6.5060    2.9490    0.6470 o         1 MOL     -0.489891
    144 C45         6.2590    2.2120   -2.4230 c3        1 MOL     -0.322943
    145 C46         4.7610    1.8180   -2.6330 c3        1 MOL      0.178690
    146 C47         4.2030    2.2930   -4.0160 c3        1 MOL     -0.237919
    147 C48         3.0120    1.3600   -4.3800 c3        1 MOL      0.177209
    148 N13         2.3810    1.8090   -5.6190 n4        1 MOL     -0.403513
    149 H67         6.4280   -0.3880   -2.2150 hn        1 MOL      0.152477
    150 H68         7.9130    1.6280   -1.0440 h1        1 MOL      0.120666
    151 H69         6.8250    1.9840   -3.3330 hc        1 MOL      0.109738
    152 H70         6.2400    3.2750   -2.1850 hc        1 MOL      0.109738
    153 H71         4.1050    2.3320   -1.9190 hc        1 MOL      0.050954
    154 H72         4.6050    0.7400   -2.5440 hc        1 MOL      0.050954
    155 H73         4.9580    2.0930   -4.7760 hc        1 MOL      0.057061
    156 H74         3.9490    3.3560   -3.9760 hc        1 MOL      0.057061
    157 H75         2.2440    1.3300   -3.6110 hx        1 MOL      0.062252
    158 H76         3.3210    0.3280   -4.5710 hx        1 MOL      0.062252
    159 H77         1.6120    1.2440   -5.9170 hn        1 MOL      0.329178
    160 H78         1.9810    2.7330   -5.5570 hn        1 MOL      0.329178
    161 H79         3.0750    1.9000   -6.3560 hn        1 MOL      0.329178
    162 N14         5.0090    1.1970    0.4350 n         1 MOL     -0.164078
    163 C49         4.2380    1.3820    1.7440 c3        1 MOL     -0.249079
    164 C50         4.9390    0.7110    3.0000 c         1 MOL      0.561170
    165 O22         4.8300    1.1570    4.1370 o         1 MOL     -0.540175
    166 C51         2.7550    0.8720    1.5190 c3        1 MOL     -0.041499
    167 C52         2.0910    1.4150    0.2500 c3        1 MOL      0.058908
    168 C53         0.7010    0.7160    0.0680 c         1 MOL      0.631925
    169 O23         0.6140   -0.5070   -0.0900 o         1 MOL     -0.671298
    170 O24        -0.3150    1.4520   -0.1950 o         1 MOL     -0.671298
    171 H80         4.6520    0.3990   -0.0650 hn        1 MOL      0.326066
    172 H81         4.2310    2.4650    1.9320 h1        1 MOL      0.110331
    173 H82         2.0980    1.0390    2.3760 hc        1 MOL      0.079940
    174 H83         2.8100   -0.2110    1.4480 hc        1 MOL      0.079940
    175 H84         2.6840    1.2000   -0.6410 hc        1 MOL     -0.047059
    176 H85         1.9780    2.4970    0.1620 hc        1 MOL     -0.047059
    177 N15         5.5480   -0.4800    2.7880 n         1 MOL     -0.196214
    178 C54         6.3280   -1.1660    3.8860 c3        1 MOL     -0.248855
    179 H86         6.8080   -0.4160    4.5140 h1        1 MOL      0.106688
    180 H87         5.6500   -1.7670    4.4920 h1        1 MOL      0.106688
    181 H88         7.0890   -1.8100    3.4440 h1        1 MOL      0.106688
    182 H89         5.6130   -0.8590    1.8480 hn        1 MOL      0.105253
    183 Ca1        -1.8840   -0.5300   -0.9260 Ca        1 MOL      1.773414
    184 O25        -1.5840   -3.1090   -2.4660 oh        1 MOL     -0.902803
    185 H90        -2.3800   -3.6340   -2.4180 ho        1 MOL      0.403802
    186 H91        -1.3640   -3.1010   -3.3970 ho        1 MOL      0.403802
    187 O26        -0.2290   -0.2040   -2.8560 oh        1 MOL     -0.902803
    188 H92         0.1710   -0.5630   -3.6430 ho        1 MOL      0.403802
    189 H93        -0.5640    0.6490   -3.1240 ho        1 MOL      0.403802
@<TRIPOS>BOND
     1    1    2 1   
     2    1    4 1   
     3    1    5 1   
     4    1    6 1   
     5    2    3 2   
     6    2    7 1   
     7    7    8 1   
     8    7   15 1   
     9    8    9 1   
    10    8   11 1   
    11    8   16 1   
    12    9   10 2   
    13    9   19 1   
    14   11   12 1   
    15   11   17 1   
    16   11   18 1   
    17   12   13 1   
    18   12   14 1   
    19   19   20 1   
    20   19   28 1   
    21   20   21 1   
    22   20   23 1   
    23   20   29 1   
    24   21   22 2   
    25   21   41 1   
    26   23   24 1   
    27   23   30 1   
    28   23   31 1   
    29   24   25 1   
    30   24   32 1   
    31   24   33 1   
    32   25   26 1   
    33   25   34 1   
    34   25   35 1   
    35   26   27 1   
    36   26   36 1   
    37   26   37 1   
    38   27   38 1   
    39   27   39 1   
    40   27   40 1   
    41   41   42 1   
    42   41   49 1   
    43   42   43 1   
    44   42   45 1   
    45   42   50 1   
    46   43   44 2   
    47   43   53 1   
    48   45   46 1   
    49   45   51 1   
    50   45   52 1   
    51   46   47 1   
    52   46   48 1   
    53   53   54 1   
    54   53   57 1   
    55   54   55 1   
    56   54   58 1   
    57   54   59 1   
    58   55   56 2   
    59   55   60 1   
    60   60   61 1   
    61   60   68 1   
    62   61   62 1   
    63   61   64 1   
    64   61   69 1   
    65   62   63 2   
    66   62   72 1   
    67   64   65 1   
    68   64   70 1   
    69   64   71 1   
    70   65   66 1   
    71   65   67 1   
    72   72   73 1   
    73   72   76 1   
    74   73   74 1   
    75   73   77 1   
    76   73   78 1   
    77   74   75 2   
    78   74   79 1   
    79   79   80 1   
    80   79   86 1   
    81   80   81 1   
    82   80   83 1   
    83   80   87 1   
    84   81   82 2   
    85   81   93 1   
    86   83   84 1   
    87   83   85 1   
    88   83   88 1   
    89   84   90 1   
    90   84   91 1   
    91   84   92 1   
    92   85   89 1   
    93   93   94 1   
    94   93  101 1   
    95   94   95 1   
    96   94   97 1   
    97   94  102 1   
    98   95   96 2   
    99   95  112 1   
   100   97   98 1   
   101   97   99 1   
   102   97  103 1   
   103   98  100 1   
   104   98  104 1   
   105   98  105 1   
   106   99  106 1   
   107   99  107 1   
   108   99  108 1   
   109  100  109 1   
   110  100  110 1   
   111  100  111 1   
   112  112  113 1   
   113  112  119 1   
   114  113  114 1   
   115  113  116 1   
   116  113  120 1   
   117  114  115 2   
   118  114  126 1   
   119  116  117 1   
   120  116  118 1   
   121  116  121 1   
   122  117  123 1   
   123  117  124 1   
   124  117  125 1   
   125  118  122 1   
   126  126  127 1   
   127  126  133 1   
   128  127  128 1   
   129  127  130 1   
   130  127  134 1   
   131  128  129 2   
   132  128  140 1   
   133  130  131 1   
   134  130  132 1   
   135  130  135 1   
   136  131  137 1   
   137  131  138 1   
   138  131  139 1   
   139  132  136 1   
   140  140  141 1   
   141  140  149 1   
   142  141  142 1   
   143  141  144 1   
   144  141  150 1   
   145  142  143 2   
   146  142  162 1   
   147  144  145 1   
   148  144  151 1   
   149  144  152 1   
   150  145  146 1   
   151  145  153 1   
   152  145  154 1   
   153  146  147 1   
   154  146  155 1   
   155  146  156 1   
   156  147  148 1   
   157  147  157 1   
   158  147  158 1   
   159  148  159 1   
   160  148  160 1   
   161  148  161 1   
   162  162  163 1   
   163  162  171 1   
   164  163  164 1   
   165  163  166 1   
   166  163  172 1   
   167  164  165 2   
   168  164  177 1   
   169  166  167 1   
   170  166  173 1   
   171  166  174 1   
   172  167  168 1   
   173  167  175 1   
   174  167  176 1   
   175  168  169 1   
   176  168  170 1   
   177  177  178 1   
   178  177  182 1   
   179  178  179 1   
   180  178  180 1   
   181  178  181 1   
   182  184  185 1   
   183  184  186 1   
   184  187  188 1   
   185  187  189 1   
@<TRIPOS>SUBSTRUCTURE
     1 MOL         1 TEMP              0 ****  ****    0 ROOT
