@<TRIPOS>MOLECULE
MOL
  189   185     1     0     0
SMALL
resp


@<TRIPOS>ATOM
      1 C1          0.3970   -3.7150    6.2500 c3        1 MOL     -0.287331
      2 C2          0.7600   -3.2680    4.7800 c         1 MOL      0.793092
      3 O1          1.1350   -2.1440    4.5730 o         1 MOL     -0.623494
      4 H1          1.3130   -3.8830    6.8150 hc        1 MOL      0.065868
      5 H2         -0.1910   -2.9340    6.7330 hc        1 MOL      0.065868
      6 H3         -0.1820   -4.6370    6.2160 hc        1 MOL      0.065868
      7 N1          0.7340   -4.1900    3.8350 n         1 MOL     -0.641825
      8 C3          1.4230   -4.0060    2.5090 c3        1 MOL      0.224757
      9 C4          0.9530   -5.0500    1.4720 c         1 MOL      0.433614
     10 O2          0.9070   -6.2230    1.7740 o         1 MOL     -0.576856
     11 C5          2.9680   -4.0620    2.6960 c3        1 MOL     -0.240690
     12 C6          3.8020   -3.3730    1.5370 c         1 MOL      0.664414
     13 O3          5.0490   -3.2850    1.6760 o         1 MOL     -0.657664
     14 O4          3.2320   -2.6490    0.6950 o         1 MOL     -0.657664
     15 H4          0.6060   -5.1640    4.0610 hn        1 MOL      0.313523
     16 H5          1.0960   -3.0030    2.2440 h1        1 MOL      0.068219
     17 H6          3.3300   -5.0670    2.8990 hc        1 MOL      0.068058
     18 H7          3.1960   -3.6740    3.6960 hc        1 MOL      0.068058
     19 N2          0.7400   -4.6900    0.2120 n         1 MOL      0.019323
     20 C7          0.4670   -5.5870   -0.9530 c3        1 MOL     -0.394335
     21 C8          1.3630   -5.1540   -2.2160 c         1 MOL      0.553324
     22 O5          1.2940   -5.8870   -3.2180 o         1 MOL     -0.559670
     23 C9         -1.0300   -5.6400   -1.3920 c3        1 MOL      0.364146
     24 C10        -1.4780   -4.2930   -1.9930 c3        1 MOL      0.053541
     25 C11        -1.8720   -5.8780   -0.1420 c3        1 MOL     -0.368040
     26 C12        -2.6800   -4.5750   -2.8860 c3        1 MOL     -0.241679
     27 H8          0.6820   -3.7020   -0.0030 hn        1 MOL      0.053949
     28 H9          0.7450   -6.5910   -0.6330 h1        1 MOL      0.145092
     29 H10        -1.1080   -6.4250   -2.1350 hc        1 MOL     -0.030017
     30 H11        -0.6980   -3.8530   -2.6220 hc        1 MOL      0.024876
     31 H12        -1.8520   -3.5240   -1.3150 hc        1 MOL      0.024876
     32 H13        -2.1100   -4.9580    0.3690 hc        1 MOL      0.075970
     33 H14        -2.7900   -6.3780   -0.4500 hc        1 MOL      0.075970
     34 H15        -1.3640   -6.6080    0.4940 hc        1 MOL      0.075970
     35 H16        -3.1120   -3.6670   -3.3220 hc        1 MOL      0.038857
     36 H17        -2.3700   -5.1870   -3.7380 hc        1 MOL      0.038857
     37 H18        -3.4160   -5.1370   -2.3220 hc        1 MOL      0.038857
     38 N3          2.2050   -4.1030   -2.0730 n         1 MOL     -0.376891
     39 C13         3.0100   -3.7570   -3.2660 c3        1 MOL      0.196178
     40 C14         4.4720   -3.7200   -2.9190 c         1 MOL      0.337741
     41 O6          5.2960   -3.9540   -3.7480 o         1 MOL     -0.534224
     42 C15         2.5400   -2.4760   -3.9580 c3        1 MOL     -0.321553
     43 C16         2.2750   -1.2930   -3.0950 c         1 MOL      0.838467
     44 O7          2.9440   -1.1200   -2.0480 o         1 MOL     -0.729936
     45 O8          1.4260   -0.4500   -3.4050 o         1 MOL     -0.729936
     46 H19         2.2750   -3.5400   -1.2360 hn        1 MOL      0.184463
     47 H20         2.8890   -4.5870   -3.9570 h1        1 MOL      0.058819
     48 H21         1.6030   -2.7210   -4.4640 hc        1 MOL      0.073053
     49 H22         3.2330   -2.1640   -4.7430 hc        1 MOL      0.073053
     50 N4          4.8830   -3.3550   -1.6630 n         1 MOL     -0.053473
     51 C17         6.3520   -3.2520   -1.4000 c3        1 MOL     -0.358356
     52 C18         6.9790   -1.9350   -1.7830 c         1 MOL      0.591599
     53 O9          8.2080   -1.7400   -1.8230 o         1 MOL     -0.618215
     54 H23         4.2250   -3.2880   -0.9010 hn        1 MOL      0.077803
     55 H24         6.9330   -4.0810   -1.7960 h1        1 MOL      0.142245
     56 H25         6.4590   -3.1640   -0.3160 h1        1 MOL      0.142245
     57 N5          6.1150   -0.8970   -1.9380 n         1 MOL     -0.338341
     58 C19         6.5050    0.3940   -2.4620 c3        1 MOL      0.050421
     59 C20         7.1580    1.3460   -1.4260 c         1 MOL      0.555763
     60 O10         7.8790    2.1810   -1.8900 o         1 MOL     -0.578893
     61 C21         5.3860    1.1140   -3.1600 c3        1 MOL     -0.217184
     62 C22         4.2670    1.7030   -2.3060 c         1 MOL      0.790001
     63 O11         4.1810    1.2320   -1.1160 o         1 MOL     -0.696252
     64 O12         3.3500    2.4700   -2.6710 o         1 MOL     -0.696252
     65 H26         5.1310   -1.0260   -1.7810 hn        1 MOL      0.270759
     66 H27         7.3190    0.2850   -3.1780 h1        1 MOL      0.072806
     67 H28         4.7950    0.4760   -3.8080 hc        1 MOL      0.045920
     68 H29         5.8740    1.8710   -3.7780 hc        1 MOL      0.045920
     69 N6          6.8520    1.2040   -0.1270 n         1 MOL     -0.373685
     70 C23         7.3290    2.1360    0.9730 c3        1 MOL      0.022812
     71 C24         6.3630    3.3050    1.3200 c         1 MOL      0.444055
     72 O13         6.7470    4.2920    1.8360 o         1 MOL     -0.573101
     73 H30         6.1340    0.5400    0.1480 hn        1 MOL      0.230024
     74 H31         8.2740    2.5720    0.6350 h1        1 MOL      0.042586
     75 H32         7.6130    1.5730    1.8710 h1        1 MOL      0.042586
     76 N7          5.0810    3.1760    0.9260 n         1 MOL     -0.147755
     77 C25         3.9850    4.1740    1.2250 c3        1 MOL     -0.046956
     78 C26         2.6810    3.4450    1.5350 c         1 MOL      0.512300
     79 O14         2.7340    2.1760    1.6960 o         1 MOL     -0.632290
     80 C27         3.8070    5.0270   -0.0520 c3        1 MOL     -0.103581
     81 C28         5.0960    5.8160   -0.3440 c3        1 MOL     -0.321593
     82 C29         4.8080    6.9750   -1.2340 c         1 MOL      0.783298
     83 N8          5.7810    7.8250   -1.4480 n         1 MOL     -0.876720
     84 O15         3.8110    7.0990   -1.8400 o         1 MOL     -0.556159
     85 H33         4.8280    2.3460    0.4070 hn        1 MOL      0.125391
     86 H34         4.2510    4.8450    2.0490 h1        1 MOL      0.083186
     87 H35         2.9430    5.6860   -0.0220 hc        1 MOL      0.066379
     88 H36         3.6700    4.3330   -0.8800 hc        1 MOL      0.066379
     89 H37         5.7660    5.1100   -0.8470 hc        1 MOL      0.112935
     90 H38         5.5520    6.2010    0.5640 hc        1 MOL      0.112935
     91 H39         6.6480    7.7600   -0.9330 hn        1 MOL      0.351189
     92 H40         5.7570    8.6230   -2.0670 hn        1 MOL      0.351189
     93 N9          1.5110    4.0720    1.6810 n         1 MOL     -0.406116
     94 C30         0.2570    3.4860    2.2060 c3        1 MOL     -0.145584
     95 C31        -0.8320    3.7970    1.2200 c         1 MOL      0.692472
     96 O16        -1.2370    4.9980    1.1480 o         1 MOL     -0.601480
     97 C32        -0.0840    3.7700    3.6770 c3        1 MOL      0.247569
     98 C33        -1.4780    3.3430    4.1600 c3        1 MOL     -0.317415
     99 C34         0.8470    2.9940    4.5290 c3        1 MOL     -0.317415
    100 H41         1.5530    5.0800    1.6540 hn        1 MOL      0.288090
    101 H42         0.3400    2.4000    2.2010 h1        1 MOL      0.122302
    102 H43        -0.0010    4.8280    3.9080 hc        1 MOL     -0.019676
    103 H44        -1.4620    2.2570    4.2680 hc        1 MOL      0.075319
    104 H45        -1.6710    3.7670    5.1480 hc        1 MOL      0.075319
    105 H46        -2.2630    3.6660    3.4820 hc        1 MOL      0.075319
    106 H47         0.8030    1.9490    4.2250 hc        1 MOL      0.075319
    107 H48         1.8590    3.3970    4.6040 hc        1 MOL      0.075319
    108 H49         0.4500    3.0040    5.5420 hc        1 MOL      0.075319
    109 N10        -1.3150    2.7570    0.4880 n         1 MOL     -0.765030
    110 C35        -2.6050    2.9010   -0.2690 c3        1 MOL      0.495642
    111 C36        -3.8730    2.6740    0.5900 c         1 MOL     -0.006319
    112 O17        -3.8440    2.0810    1.6960 o         1 MOL     -0.213280
    113 C37        -2.4650    1.7510   -1.2960 c3        1 MOL     -0.497947
    114 C38        -3.5970    1.6660   -2.3270 c         1 MOL      0.788624
    115 N11        -3.6220    2.5890   -3.2520 n         1 MOL     -0.807014
    116 O18        -4.4890    0.8450   -2.1790 o         1 MOL     -0.604376
    117 H50        -0.8840    1.8590    0.6650 hn        1 MOL      0.495912
    118 H51        -2.7570    3.8610   -0.7700 h1        1 MOL     -0.006949
    119 H52        -2.4050    0.7950   -0.7840 hc        1 MOL      0.157316
    120 H53        -1.5330    1.9570   -1.8210 hc        1 MOL      0.157316
    121 H54        -2.7930    3.1690   -3.3190 hn        1 MOL      0.357816
    122 H55        -4.3520    2.6390   -3.9460 hn        1 MOL      0.357816
    123 N12        -5.0810    2.8880    0.0290 n         1 MOL      0.048316
    124 C39        -6.3720    2.5440    0.6940 c3        1 MOL     -0.058773
    125 C40        -6.5840    1.0970    0.8990 c         1 MOL      0.522455
    126 O19        -6.9530    0.7290    2.0000 o         1 MOL     -0.573511
    127 C41        -7.4640    3.2340   -0.0210 c3        1 MOL     -0.137147
    128 C42        -7.5320    3.1420   -1.5540 ca        1 MOL     -0.076033
    129 C43        -6.9310    4.0700   -2.3980 ca        1 MOL      0.019910
    130 C44        -8.2010    2.0690   -2.1250 ca        1 MOL      0.019910
    131 C45        -6.8700    3.9080   -3.7830 ca        1 MOL     -0.450250
    132 C46        -8.2300    1.8690   -3.4910 ca        1 MOL     -0.450250
    133 C47        -7.5420    2.7940   -4.3380 ca        1 MOL      0.480205
    134 O20        -7.6140    2.7110   -5.6730 oh        1 MOL     -0.443005
    135 H56        -5.2260    3.2450   -0.8990 hn        1 MOL     -0.000210
    136 H57        -6.3010    3.1090    1.6310 h1        1 MOL      0.086263
    137 H58        -7.4270    4.3010    0.1530 hc        1 MOL      0.061184
    138 H59        -8.3950    2.8270    0.3640 hc        1 MOL      0.061184
    139 H60        -6.5550    4.9790   -1.9650 ha        1 MOL      0.087619
    140 H61        -8.6520    1.3680   -1.4300 ha        1 MOL      0.087619
    141 H62        -6.3390    4.6460   -4.3550 ha        1 MOL      0.198379
    142 H63        -8.8210    1.0780   -3.9290 ha        1 MOL      0.198379
    143 H64        -7.0590    3.4050   -6.0290 ho        1 MOL      0.300082
    144 N13        -6.1430    0.1610   -0.0030 n         1 MOL     -0.127685
    145 C48        -6.2140   -1.3200    0.2620 c3        1 MOL     -0.549273
    146 C49        -5.3440   -1.7710    1.4750 c         1 MOL      0.587009
    147 O21        -5.6430   -2.7740    2.0700 o         1 MOL     -0.541095
    148 C50        -5.7690   -2.2250   -0.8990 c3        1 MOL      0.171072
    149 C51        -6.4530   -1.9110   -2.2630 c3        1 MOL     -0.361666
    150 C52        -7.8060   -2.6610   -2.2520 c         1 MOL      0.827336
    151 O22        -8.6840   -2.2250   -1.4430 o         1 MOL     -0.759766
    152 O23        -8.0220   -3.5650   -3.0220 o         1 MOL     -0.759766
    153 H65        -5.6410    0.5110   -0.8050 hn        1 MOL      0.374525
    154 H66        -7.2270   -1.5590    0.5970 h1        1 MOL      0.230964
    155 H67        -5.8570   -3.2580   -0.5580 hc        1 MOL      0.021485
    156 H68        -4.7220   -1.9400   -0.9920 hc        1 MOL      0.021485
    157 H69        -5.7230   -2.2070   -3.0050 hc        1 MOL      0.073413
    158 H70        -6.6050   -0.8380   -2.4110 hc        1 MOL      0.073413
    159 N14        -4.3280   -0.9990    1.8920 n         1 MOL     -0.173907
    160 C53        -3.4400   -1.3400    3.0210 c3        1 MOL      0.024378
    161 C54        -3.8400   -0.5540    4.3200 c         1 MOL      0.404885
    162 O24        -3.9120   -1.2990    5.3090 o         1 MOL     -0.565942
    163 C55        -1.9790   -1.0710    2.6030 c3        1 MOL     -0.064593
    164 C56        -1.5220   -1.5670    1.2590 c3        1 MOL      0.004938
    165 C57        -0.1750   -0.9790    0.8550 c         1 MOL      0.683435
    166 O25         0.5870   -1.4970    0.0130 o         1 MOL     -0.709234
    167 O26         0.2000    0.0940    1.4210 o         1 MOL     -0.709234
    168 H71        -4.1180   -0.1610    1.3670 hn        1 MOL      0.069820
    169 H72        -3.5370   -2.4040    3.2520 h1        1 MOL      0.058462
    170 H73        -1.2940   -1.3070    3.4110 hc        1 MOL      0.022376
    171 H74        -1.9780    0.0040    2.4250 hc        1 MOL      0.022376
    172 H75        -2.2480   -1.3940    0.4720 hc        1 MOL     -0.024840
    173 H76        -1.3440   -2.6470    1.3530 hc        1 MOL     -0.024840
    174 N15        -4.2730    0.6950    4.1940 n         1 MOL     -0.026761
    175 C58        -4.7250    1.6230    5.2270 c3        1 MOL     -0.111220
    176 H77        -5.7770    1.8590    5.0670 h1        1 MOL      0.048966
    177 H78        -4.6020    1.1640    6.2080 h1        1 MOL      0.048966
    178 H79        -4.1360    2.5380    5.1770 h1        1 MOL      0.048966
    179 H80        -4.1950    1.0700    3.2680 hn        1 MOL      0.010351
    180 Ca1         2.6430   -0.1430    0.3610 Ca        1 MOL      1.789867
    181 O27         2.7400   -0.5980    3.2490 oh        1 MOL     -0.888015
    182 H81         2.0250   -1.0390    3.7180 ho        1 MOL      0.420005
    183 H82         2.9940    0.1130    3.8290 ho        1 MOL      0.420005
    184 O28         5.2460   -0.6110    1.3550 oh        1 MOL     -0.888015
    185 H83         5.0830   -1.5600    1.4270 ho        1 MOL      0.420005
    186 H84         5.7800   -0.4080    2.1230 ho        1 MOL      0.420005
    187 O29         1.1730    1.1970   -1.3080 oh        1 MOL     -0.888015
    188 H85         0.8490    0.7080   -2.0510 ho        1 MOL      0.420005
    189 H86         1.8530    1.7680   -1.6660 ho        1 MOL      0.420005
@<TRIPOS>BOND
     1    1    2 1   
     2    1    4 1   
     3    1    5 1   
     4    1    6 1   
     5    2    3 2   
     6    2    7 1   
     7    7    8 1   
     8    7   15 1   
     9    8    9 1   
    10    8   11 1   
    11    8   16 1   
    12    9   10 2   
    13    9   19 1   
    14   11   12 1   
    15   11   17 1   
    16   11   18 1   
    17   12   13 1   
    18   12   14 1   
    19   19   20 1   
    20   19   27 1   
    21   20   21 1   
    22   20   23 1   
    23   20   28 1   
    24   21   22 2   
    25   21   38 1   
    26   23   24 1   
    27   23   25 1   
    28   23   29 1   
    29   24   26 1   
    30   24   30 1   
    31   24   31 1   
    32   25   32 1   
    33   25   33 1   
    34   25   34 1   
    35   26   35 1   
    36   26   36 1   
    37   26   37 1   
    38   38   39 1   
    39   38   46 1   
    40   39   40 1   
    41   39   42 1   
    42   39   47 1   
    43   40   41 2   
    44   40   50 1   
    45   42   43 1   
    46   42   48 1   
    47   42   49 1   
    48   43   44 1   
    49   43   45 1   
    50   50   51 1   
    51   50   54 1   
    52   51   52 1   
    53   51   55 1   
    54   51   56 1   
    55   52   53 2   
    56   52   57 1   
    57   57   58 1   
    58   57   65 1   
    59   58   59 1   
    60   58   61 1   
    61   58   66 1   
    62   59   60 2   
    63   59   69 1   
    64   61   62 1   
    65   61   67 1   
    66   61   68 1   
    67   62   63 1   
    68   62   64 1   
    69   69   70 1   
    70   69   73 1   
    71   70   71 1   
    72   70   74 1   
    73   70   75 1   
    74   71   72 2   
    75   71   76 1   
    76   76   77 1   
    77   76   85 1   
    78   77   78 1   
    79   77   80 1   
    80   77   86 1   
    81   78   79 2   
    82   78   93 1   
    83   80   81 1   
    84   80   87 1   
    85   80   88 1   
    86   81   82 1   
    87   81   89 1   
    88   81   90 1   
    89   82   83 1   
    90   82   84 2   
    91   83   91 1   
    92   83   92 1   
    93   93   94 1   
    94   93  100 1   
    95   94   95 1   
    96   94   97 1   
    97   94  101 1   
    98   95   96 2   
    99   95  109 1   
   100   97   98 1   
   101   97   99 1   
   102   97  102 1   
   103   98  103 1   
   104   98  104 1   
   105   98  105 1   
   106   99  106 1   
   107   99  107 1   
   108   99  108 1   
   109  109  110 1   
   110  109  117 1   
   111  110  111 1   
   112  110  113 1   
   113  110  118 1   
   114  111  112 2   
   115  111  123 1   
   116  113  114 1   
   117  113  119 1   
   118  113  120 1   
   119  114  115 1   
   120  114  116 2   
   121  115  121 1   
   122  115  122 1   
   123  123  124 1   
   124  123  135 1   
   125  124  125 1   
   126  124  127 1   
   127  124  136 1   
   128  125  126 2   
   129  125  144 1   
   130  127  128 1   
   131  127  137 1   
   132  127  138 1   
   133  128  129 ar  
   134  128  130 ar  
   135  129  131 ar  
   136  129  139 1   
   137  130  132 ar  
   138  130  140 1   
   139  131  133 ar  
   140  131  141 1   
   141  132  133 ar  
   142  132  142 1   
   143  133  134 1   
   144  134  143 1   
   145  144  145 1   
   146  144  153 1   
   147  145  146 1   
   148  145  148 1   
   149  145  154 1   
   150  146  147 2   
   151  146  159 1   
   152  148  149 1   
   153  148  155 1   
   154  148  156 1   
   155  149  150 1   
   156  149  157 1   
   157  149  158 1   
   158  150  151 1   
   159  150  152 1   
   160  159  160 1   
   161  159  168 1   
   162  160  161 1   
   163  160  163 1   
   164  160  169 1   
   165  161  162 2   
   166  161  174 1   
   167  163  164 1   
   168  163  170 1   
   169  163  171 1   
   170  164  165 1   
   171  164  172 1   
   172  164  173 1   
   173  165  166 1   
   174  165  167 1   
   175  174  175 1   
   176  174  179 1   
   177  175  176 1   
   178  175  177 1   
   179  175  178 1   
   180  181  182 1   
   181  181  183 1   
   182  184  185 1   
   183  184  186 1   
   184  187  188 1   
   185  187  189 1   
@<TRIPOS>SUBSTRUCTURE
     1 MOL         1 TEMP              0 ****  ****    0 ROOT
