@<TRIPOS>MOLECULE
MOL
  182   178     1     0     0
SMALL
resp


@<TRIPOS>ATOM
      1 C1         -1.5550   -2.5830    6.1740 c3        1 MOL     -0.287602
      2 C2         -1.1060   -2.5290    4.7240 c         1 MOL      0.790384
      3 O1         -1.9150   -2.6420    3.8320 o         1 MOL     -0.621814
      4 H1         -2.6230   -2.8010    6.2160 hc        1 MOL      0.069079
      5 H2         -1.0040   -3.3650    6.6970 hc        1 MOL      0.069079
      6 H3         -1.3630   -1.6220    6.6510 hc        1 MOL      0.069079
      7 N1          0.1760   -2.2420    4.4300 n         1 MOL     -0.640439
      8 C3          0.7810   -2.2100    3.1340 c3        1 MOL      0.163696
      9 C4          0.8930   -3.5540    2.4690 c         1 MOL      0.556746
     10 O2          1.6040   -4.4330    2.9580 o         1 MOL     -0.544911
     11 C5          2.1030   -1.4560    3.1760 c3        1 MOL     -0.443390
     12 C6          2.8900   -1.2320    1.8660 c         1 MOL      0.911162
     13 O3          4.0110   -0.7190    2.0010 o         1 MOL     -0.728967
     14 O4          2.4200   -1.6540    0.7970 o         1 MOL     -0.728967
     15 H4          0.7980   -2.1190    5.2070 hn        1 MOL      0.317205
     16 H5          0.0780   -1.6260    2.5440 h1        1 MOL      0.029835
     17 H6          2.8040   -1.9530    3.8420 hc        1 MOL      0.107342
     18 H7          1.9640   -0.4220    3.4810 hc        1 MOL      0.107342
     19 N2          0.1680   -3.7270    1.3250 n         1 MOL     -0.281428
     20 C7         -0.0180   -5.0930    0.7310 c3        1 MOL     -0.149996
     21 C8          1.3240   -5.6090    0.1560 c         1 MOL      0.551696
     22 O5          1.5210   -6.8170   -0.0040 o         1 MOL     -0.578581
     23 C9         -1.2370   -4.9820   -0.2490 c3        1 MOL      0.282772
     24 C10        -1.9040   -6.3200   -0.3940 c3        1 MOL     -0.214200
     25 C11        -3.1950   -6.0100   -1.1370 c3        1 MOL      0.325736
     26 C12        -3.9130   -7.2210   -1.6990 c3        1 MOL      0.039357
     27 N3         -4.9510   -6.8380   -2.6950 n4        1 MOL     -0.432194
     28 H8         -0.4510   -2.9760    1.0650 hn        1 MOL      0.158111
     29 H9         -0.2950   -5.8170    1.5020 h1        1 MOL      0.112145
     30 H10        -0.9080   -4.7070   -1.2560 hc        1 MOL     -0.032555
     31 H11        -1.8810   -4.1730    0.1000 hc        1 MOL     -0.032555
     32 H12        -2.2150   -6.8550    0.5130 hc        1 MOL      0.036359
     33 H13        -1.4520   -6.9890   -1.1210 hc        1 MOL      0.036359
     34 H14        -2.9390   -5.3460   -1.9560 hc        1 MOL     -0.066601
     35 H15        -3.9430   -5.4560   -0.5700 hc        1 MOL     -0.066601
     36 H16        -4.3260   -7.8520   -0.9090 hx        1 MOL      0.071308
     37 H17        -3.1450   -7.8370   -2.1690 hx        1 MOL      0.071308
     38 H18        -4.7230   -5.8920   -2.9540 hn        1 MOL      0.344038
     39 H19        -4.8940   -7.4390   -3.5030 hn        1 MOL      0.344038
     40 H20        -5.9050   -6.8590   -2.3570 hn        1 MOL      0.344038
     41 N4          2.1980   -4.7400   -0.3220 n         1 MOL     -0.332793
     42 C13         3.3620   -5.1290   -1.1310 c3        1 MOL      0.117530
     43 C14         4.7410   -4.6250   -0.5210 c         1 MOL      0.341744
     44 O6          5.7770   -4.9800   -1.1270 o         1 MOL     -0.510614
     45 C15         3.2280   -4.8450   -2.6450 c3        1 MOL     -0.300459
     46 C16         3.0000   -3.3500   -3.0250 c         1 MOL      0.836276
     47 O7          2.9830   -2.4730   -2.1260 o         1 MOL     -0.733800
     48 O8          2.6390   -3.0300   -4.1900 o         1 MOL     -0.733800
     49 H21         2.0230   -3.7490   -0.3920 hn        1 MOL      0.126121
     50 H22         3.3560   -6.2160   -1.0570 h1        1 MOL      0.108145
     51 H23         2.3400   -5.4030   -2.9570 hc        1 MOL      0.074148
     52 H24         4.0700   -5.3120   -3.1520 hc        1 MOL      0.074148
     53 N5          4.7890   -3.7670    0.5560 n         1 MOL     -0.131485
     54 C17         5.9930   -3.3540    1.2430 c3        1 MOL     -0.351773
     55 C18         6.7160   -2.0990    0.6510 c         1 MOL      0.637041
     56 O9          7.7430   -1.6620    1.1430 o         1 MOL     -0.573666
     57 H25         3.9330   -3.3830    0.9300 hn        1 MOL      0.192120
     58 H26         6.7060   -4.1740    1.2110 h1        1 MOL      0.149349
     59 H27         5.7050   -3.1000    2.2610 h1        1 MOL      0.149349
     60 N6          6.1450   -1.5530   -0.4220 n         1 MOL     -0.414306
     61 C19         6.7390   -0.3330   -1.1040 c3        1 MOL     -0.020380
     62 C20         6.8440    0.9120   -0.1910 c         1 MOL      0.503024
     63 O10         7.7010    1.6860   -0.4890 o         1 MOL     -0.554329
     64 C21         5.9230   -0.0590   -2.3940 c3        1 MOL     -0.173633
     65 C22         4.6530    0.7780   -2.2510 c         1 MOL      0.450453
     66 N7          4.4630    1.8450   -3.0410 n         1 MOL     -0.619753
     67 O11         3.8900    0.6130   -1.3330 o         1 MOL     -0.453584
     68 H28         5.1920   -1.7890   -0.6460 hn        1 MOL      0.288856
     69 H29         7.7380   -0.6030   -1.4520 h1        1 MOL      0.124133
     70 H30         5.5700   -0.9840   -2.8540 hc        1 MOL      0.090392
     71 H31         6.6300    0.3670   -3.1070 hc        1 MOL      0.090392
     72 H32         5.1510    1.9690   -3.7660 hn        1 MOL      0.322051
     73 H33         3.6640    2.4540   -2.9830 hn        1 MOL      0.322051
     74 N8          6.1330    1.0260    0.9280 n         1 MOL     -0.203013
     75 C23         6.0630    2.2570    1.7840 c3        1 MOL     -0.293135
     76 C24         4.8190    3.1500    1.6540 c         1 MOL      0.521789
     77 O12         4.8770    4.1980    2.3060 o         1 MOL     -0.558672
     78 H34         5.5300    0.2430    1.1350 hn        1 MOL      0.280433
     79 H35         6.9360    2.8610    1.5520 h1        1 MOL      0.148875
     80 H36         6.1780    1.8850    2.8010 h1        1 MOL      0.148875
     81 N9          3.8300    2.7690    0.8680 n         1 MOL      0.017543
     82 C25         2.5550    3.5680    0.6900 c3        1 MOL      0.179414
     83 C26         1.3180    2.7520    0.9140 c         1 MOL      0.192293
     84 O13         1.3350    1.5410    0.6150 o         1 MOL     -0.537802
     85 C27         2.6250    4.2060   -0.6880 c3        1 MOL      0.120416
     86 C28         3.6750    5.2660   -0.7660 ca        1 MOL     -0.147799
     87 C29         4.9520    4.9150   -1.2490 ca        1 MOL     -0.064070
     88 C30         3.4470    6.6480   -0.4110 ca        1 MOL     -0.064070
     89 C31         6.0150    5.8090   -1.3160 ca        1 MOL     -0.334689
     90 C32         4.4500    7.6320   -0.4430 ca        1 MOL     -0.334689
     91 C33         5.7310    7.2060   -0.8760 ca        1 MOL      0.395888
     92 O14         6.7900    8.1090   -0.8650 oh        1 MOL     -0.481251
     93 H37         3.8470    1.8030    0.5580 hn        1 MOL     -0.062853
     94 H38         2.5640    4.3980    1.3990 h1        1 MOL     -0.000050
     95 H39         1.6700    4.6500   -0.9390 hc        1 MOL     -0.016202
     96 H40         2.8760    3.3910   -1.3580 hc        1 MOL     -0.016202
     97 H41         5.1240    3.8860   -1.5410 ha        1 MOL      0.100760
     98 H42         2.4230    6.9320   -0.1860 ha        1 MOL      0.100760
     99 H43         7.0130    5.4550   -1.5260 ha        1 MOL      0.183090
    100 H44         4.3230    8.6660   -0.1590 ha        1 MOL      0.183090
    101 H45         6.4730    9.0130   -0.9110 ho        1 MOL      0.339386
    102 N10         0.1520    3.3460    1.2210 n         1 MOL     -0.106266
    103 C34        -1.2070    2.7420    1.2440 c3        1 MOL     -0.306327
    104 C35        -2.2000    3.7190    0.6720 c         1 MOL      0.389661
    105 O15        -2.0340    4.9040    0.9120 o         1 MOL     -0.511777
    106 C36        -1.6260    2.1840    2.6480 c3        1 MOL     -0.012458
    107 C37        -2.0460    3.2780    3.6990 c3        1 MOL     -0.199068
    108 C38        -0.5110    1.2320    3.1240 c3        1 MOL     -0.289308
    109 C39        -2.5760    2.6360    4.9860 c3        1 MOL     -0.186156
    110 H46         0.1860    4.3130    1.4940 hn        1 MOL      0.252819
    111 H47        -1.2200    1.8750    0.5720 h1        1 MOL      0.251298
    112 H48        -2.5140    1.5690    2.5260 hc        1 MOL      0.047479
    113 H49        -2.7890    3.9690    3.3040 hc        1 MOL      0.113309
    114 H50        -1.1760    3.8660    3.9810 hc        1 MOL      0.113309
    115 H51        -0.8780    0.6890    3.9940 hc        1 MOL      0.111506
    116 H52        -0.3170    0.4450    2.3980 hc        1 MOL      0.111506
    117 H53         0.4340    1.7330    3.3330 hc        1 MOL      0.111506
    118 H54        -3.1690    3.4230    5.4430 hc        1 MOL      0.059644
    119 H55        -3.3360    1.8930    4.7370 hc        1 MOL      0.059644
    120 H56        -1.8800    2.1810    5.6860 hc        1 MOL      0.059644
    121 N11        -3.1940    3.1950   -0.0610 n         1 MOL     -0.104470
    122 C40        -4.2130    3.8240   -0.8560 c3        1 MOL      0.087326
    123 C41        -5.6260    3.5620   -0.3120 c         1 MOL      0.503789
    124 O16        -5.7400    2.8200    0.6210 o         1 MOL     -0.418597
    125 C42        -4.0030    3.2490   -2.3000 c3        1 MOL     -0.321502
    126 O17        -4.4930    1.9250   -2.4950 oh        1 MOL     -0.372592
    127 H57        -3.1830    2.1860   -0.1590 hn        1 MOL      0.129842
    128 H58        -4.0190    4.9010   -0.8560 h1        1 MOL      0.064201
    129 H59        -2.9240    3.2170   -2.4580 h1        1 MOL      0.138182
    130 H60        -4.5460    3.8680   -3.0070 h1        1 MOL      0.138182
    131 H61        -4.1050    1.4880   -3.2600 ho        1 MOL      0.392770
    132 N12        -6.6570    4.1500   -0.9710 n         1 MOL     -0.511941
    133 C43        -8.0160    3.7310   -0.5680 c3        1 MOL      0.103387
    134 C44        -8.1920    2.2770   -0.7790 c         1 MOL      0.402396
    135 O18        -8.8220    1.5230    0.0270 o         1 MOL     -0.519731
    136 C45        -9.0690    4.6060   -1.3490 c3        1 MOL     -0.274463
    137 H62        -6.5120    4.7430   -1.7810 hn        1 MOL      0.315862
    138 H63        -8.0540    3.8090    0.5160 h1        1 MOL      0.103329
    139 H64        -8.9650    4.4100   -2.4170 hc        1 MOL      0.094486
    140 H65       -10.1020    4.3940   -1.0940 hc        1 MOL      0.094486
    141 H66        -8.9560    5.6660   -1.1130 hc        1 MOL      0.094486
    142 N13        -7.6960    1.7780   -1.9030 n         1 MOL     -0.259947
    143 C46        -7.9300    0.3460   -2.2840 c3        1 MOL     -0.002959
    144 C47        -7.0700   -0.6620   -1.5250 c         1 MOL      0.515719
    145 O19        -7.4460   -1.8280   -1.5510 o         1 MOL     -0.537395
    146 C48        -7.7320    0.1830   -3.7260 c3        1 MOL     -0.138703
    147 H67        -7.2130    2.4110   -2.5180 hn        1 MOL      0.258481
    148 H68        -8.9960    0.1250   -2.1740 h1        1 MOL      0.126411
    149 H69        -7.9710   -0.8380   -4.0020 hc        1 MOL      0.036050
    150 H70        -8.2430    0.9240   -4.3340 hc        1 MOL      0.036050
    151 H71        -6.6830    0.3990   -3.9540 hc        1 MOL      0.036050
    152 N14        -5.9020   -0.2590   -0.9000 n         1 MOL     -0.086917
    153 C49        -5.2080   -0.9500    0.2040 c3        1 MOL     -0.433294
    154 C50        -6.0430   -0.9380    1.5280 c         1 MOL      0.671456
    155 O20        -6.2650   -1.9680    2.1580 o         1 MOL     -0.550402
    156 C51        -3.7830   -0.5730    0.3730 c3        1 MOL      0.116548
    157 C52        -2.9070   -0.9980   -0.8280 c3        1 MOL      0.522139
    158 C53        -1.4570   -0.5860   -0.6550 c         1 MOL      0.489328
    159 O21        -0.9970    0.2450   -1.4510 o         1 MOL     -0.693891
    160 O22        -0.6920   -1.1450    0.1720 o         1 MOL     -0.693891
    161 H72        -5.7100    0.7070   -1.1050 hn        1 MOL     -0.100433
    162 H73        -5.1730   -1.9830   -0.1230 h1        1 MOL      0.150076
    163 H74        -3.3960   -1.0650    1.2660 hc        1 MOL      0.039633
    164 H75        -3.6830    0.5080    0.4610 hc        1 MOL      0.039633
    165 H76        -3.2650   -0.5210   -1.7470 hc        1 MOL     -0.188882
    166 H77        -3.0640   -2.0680   -0.8970 hc        1 MOL     -0.188882
    167 N15        -6.5430    0.2410    2.0190 n         1 MOL     -0.261142
    168 C54        -7.3580    0.4210    3.2150 c3        1 MOL     -0.487640
    169 H78        -8.3960    0.1770    2.9870 h1        1 MOL      0.176487
    170 H79        -6.9960   -0.2360    4.0050 h1        1 MOL      0.176487
    171 H80        -7.2950    1.4580    3.5460 h1        1 MOL      0.176487
    172 H81        -6.5060    1.0300    1.3790 hn        1 MOL      0.259338
    173 Ca1         1.5020   -0.3250   -1.2580 Ca        1 MOL      1.802314
    174 O23         0.0800   -2.1850   -2.7520 oh        1 MOL     -0.862834
    175 H82         0.7900   -2.7760   -2.9690 ho        1 MOL      0.404387
    176 H83        -0.7170   -2.6980   -2.8720 ho        1 MOL      0.404387
    177 O24         0.7910    2.1240   -2.6280 oh        1 MOL     -0.862834
    178 H84        -0.1560    2.2810   -2.6940 ho        1 MOL      0.404387
    179 H85         1.1750    2.8190   -3.1540 ho        1 MOL      0.404387
    180 O25         2.2170   -0.3910   -4.0470 oh        1 MOL     -0.862834
    181 H86         2.2910   -1.3380   -4.1940 ho        1 MOL      0.404387
    182 H87         2.1790   -0.0120   -4.9220 ho        1 MOL      0.404387
@<TRIPOS>BOND
     1    1    2 1   
     2    1    4 1   
     3    1    5 1   
     4    1    6 1   
     5    2    3 2   
     6    2    7 1   
     7    7    8 1   
     8    7   15 1   
     9    8    9 1   
    10    8   11 1   
    11    8   16 1   
    12    9   10 2   
    13    9   19 1   
    14   11   12 1   
    15   11   17 1   
    16   11   18 1   
    17   12   13 1   
    18   12   14 1   
    19   19   20 1   
    20   19   28 1   
    21   20   21 1   
    22   20   23 1   
    23   20   29 1   
    24   21   22 2   
    25   21   41 1   
    26   23   24 1   
    27   23   30 1   
    28   23   31 1   
    29   24   25 1   
    30   24   32 1   
    31   24   33 1   
    32   25   26 1   
    33   25   34 1   
    34   25   35 1   
    35   26   27 1   
    36   26   36 1   
    37   26   37 1   
    38   27   38 1   
    39   27   39 1   
    40   27   40 1   
    41   41   42 1   
    42   41   49 1   
    43   42   43 1   
    44   42   45 1   
    45   42   50 1   
    46   43   44 2   
    47   43   53 1   
    48   45   46 1   
    49   45   51 1   
    50   45   52 1   
    51   46   47 1   
    52   46   48 1   
    53   53   54 1   
    54   53   57 1   
    55   54   55 1   
    56   54   58 1   
    57   54   59 1   
    58   55   56 2   
    59   55   60 1   
    60   60   61 1   
    61   60   68 1   
    62   61   62 1   
    63   61   64 1   
    64   61   69 1   
    65   62   63 2   
    66   62   74 1   
    67   64   65 1   
    68   64   70 1   
    69   64   71 1   
    70   65   66 1   
    71   65   67 2   
    72   66   72 1   
    73   66   73 1   
    74   74   75 1   
    75   74   78 1   
    76   75   76 1   
    77   75   79 1   
    78   75   80 1   
    79   76   77 2   
    80   76   81 1   
    81   81   82 1   
    82   81   93 1   
    83   82   83 1   
    84   82   85 1   
    85   82   94 1   
    86   83   84 2   
    87   83  102 1   
    88   85   86 1   
    89   85   95 1   
    90   85   96 1   
    91   86   87 ar  
    92   86   88 ar  
    93   87   89 ar  
    94   87   97 1   
    95   88   90 ar  
    96   88   98 1   
    97   89   91 ar  
    98   89   99 1   
    99   90   91 ar  
   100   90  100 1   
   101   91   92 1   
   102   92  101 1   
   103  102  103 1   
   104  102  110 1   
   105  103  104 1   
   106  103  106 1   
   107  103  111 1   
   108  104  105 2   
   109  104  121 1   
   110  106  107 1   
   111  106  108 1   
   112  106  112 1   
   113  107  109 1   
   114  107  113 1   
   115  107  114 1   
   116  108  115 1   
   117  108  116 1   
   118  108  117 1   
   119  109  118 1   
   120  109  119 1   
   121  109  120 1   
   122  121  122 1   
   123  121  127 1   
   124  122  123 1   
   125  122  125 1   
   126  122  128 1   
   127  123  124 2   
   128  123  132 1   
   129  125  126 1   
   130  125  129 1   
   131  125  130 1   
   132  126  131 1   
   133  132  133 1   
   134  132  137 1   
   135  133  134 1   
   136  133  136 1   
   137  133  138 1   
   138  134  135 2   
   139  134  142 1   
   140  136  139 1   
   141  136  140 1   
   142  136  141 1   
   143  142  143 1   
   144  142  147 1   
   145  143  144 1   
   146  143  146 1   
   147  143  148 1   
   148  144  145 2   
   149  144  152 1   
   150  146  149 1   
   151  146  150 1   
   152  146  151 1   
   153  152  153 1   
   154  152  161 1   
   155  153  154 1   
   156  153  156 1   
   157  153  162 1   
   158  154  155 2   
   159  154  167 1   
   160  156  157 1   
   161  156  163 1   
   162  156  164 1   
   163  157  158 1   
   164  157  165 1   
   165  157  166 1   
   166  158  159 1   
   167  158  160 1   
   168  167  168 1   
   169  167  172 1   
   170  168  169 1   
   171  168  170 1   
   172  168  171 1   
   173  174  175 1   
   174  174  176 1   
   175  177  178 1   
   176  177  179 1   
   177  180  181 1   
   178  180  182 1   
@<TRIPOS>SUBSTRUCTURE
     1 MOL         1 TEMP              0 ****  ****    0 ROOT
