@<TRIPOS>MOLECULE
MOL
  186   183     1     0     0
SMALL
resp


@<TRIPOS>ATOM
      1 C1          0.6700   -1.8820    6.2920 c3        1 MOL     -0.404850
      2 C2          0.8850   -2.0000    4.7720 c         1 MOL      0.754780
      3 O1         -0.0130   -2.5090    4.0510 o         1 MOL     -0.602721
      4 H1         -0.0780   -2.6080    6.6100 hc        1 MOL      0.098568
      5 H2          1.6100   -2.0790    6.8080 hc        1 MOL      0.098568
      6 H3          0.3250   -0.8770    6.5340 hc        1 MOL      0.098568
      7 N1          2.0090   -1.5510    4.2600 n         1 MOL     -0.641877
      8 C3          2.4960   -1.5940    2.8630 c3        1 MOL      0.216493
      9 C4          2.8570   -3.0280    2.4240 c         1 MOL      0.526405
     10 O2          3.7590   -3.6640    2.9800 o         1 MOL     -0.608999
     11 C5          3.7010   -0.7400    2.7720 c3        1 MOL     -0.077798
     12 C6          4.4560   -0.7220    1.4580 c         1 MOL      0.702833
     13 O3          5.6940   -0.5820    1.4710 o         1 MOL     -0.640209
     14 O4          3.8350   -1.0090    0.4270 o         1 MOL     -0.640209
     15 H4          2.5320   -1.0550    4.9630 hn        1 MOL      0.303233
     16 H5          1.7170   -1.1850    2.2200 h1        1 MOL     -0.005445
     17 H6          4.4930   -1.0710    3.4380 hc        1 MOL      0.002937
     18 H7          3.4540    0.2820    3.0730 hc        1 MOL      0.002937
     19 N2          2.1410   -3.6510    1.4890 n         1 MOL     -0.007606
     20 C7          2.3360   -5.0530    1.0610 c3        1 MOL     -0.000789
     21 C8          3.1340   -5.1780   -0.2810 c         1 MOL      0.381269
     22 O5          3.4290   -6.3380   -0.5870 o         1 MOL     -0.560835
     23 C9          0.8810   -5.5670    0.7590 c3        1 MOL      0.250484
     24 C10        -0.1270   -5.2960    1.8870 c3        1 MOL     -0.133049
     25 C11         0.7130   -7.0460    0.3360 c3        1 MOL     -0.258986
     26 C12         0.1080   -6.0420    3.1790 c3        1 MOL     -0.107118
     27 H8          1.3210   -3.2070    1.1130 hn        1 MOL      0.021474
     28 H9          2.8350   -5.6440    1.8120 h1        1 MOL      0.061935
     29 H10         0.3870   -4.9540    0.0060 hc        1 MOL      0.002746
     30 H11        -1.1390   -5.6210    1.6270 hc        1 MOL      0.053886
     31 H12        -0.2050   -4.2380    2.1420 hc        1 MOL      0.053886
     32 H13        -0.3260   -7.3830    0.4320 hc        1 MOL      0.053761
     33 H14         1.0760   -7.1450   -0.6860 hc        1 MOL      0.053761
     34 H15         1.2440   -7.7210    1.0060 hc        1 MOL      0.053761
     35 H16         0.3680   -7.0990    3.1670 hc        1 MOL      0.009730
     36 H17         0.9700   -5.5660    3.6400 hc        1 MOL      0.009730
     37 H18        -0.7830   -5.8810    3.7830 hc        1 MOL      0.009730
     38 N3          3.3970   -4.0800   -0.9850 n         1 MOL     -0.116511
     39 C13         4.2370   -4.1190   -2.1790 c3        1 MOL     -0.003218
     40 C14         5.5480   -3.3440   -2.0730 c         1 MOL      0.431271
     41 O6          6.2260   -3.2280   -3.0950 o         1 MOL     -0.482116
     42 C15         3.3840   -3.8620   -3.4310 c3        1 MOL     -0.128150
     43 C16         2.7650   -2.4670   -3.3880 c         1 MOL      0.851527
     44 O7          3.1960   -1.5970   -2.6550 o         1 MOL     -0.746391
     45 O8          1.8590   -2.1530   -4.1820 o         1 MOL     -0.746391
     46 H19         3.2340   -3.2060   -0.5180 hn        1 MOL     -0.119926
     47 H20         4.5590   -5.1420   -2.3840 h1        1 MOL      0.079871
     48 H21         2.5710   -4.5860   -3.4930 hc        1 MOL      0.032796
     49 H22         3.9870   -3.9920   -4.3380 hc        1 MOL      0.032796
     50 N4          5.9520   -2.7740   -0.8750 n         1 MOL     -0.224591
     51 C17         7.3120   -2.3290   -0.5320 c3        1 MOL     -0.373917
     52 C18         7.6970   -1.1160   -1.3400 c         1 MOL      0.710917
     53 O9          8.5370   -1.2040   -2.2330 o         1 MOL     -0.619413
     54 H23         5.2360   -2.6230   -0.1900 hn        1 MOL      0.283419
     55 H24         7.9270   -3.1710   -0.8310 h1        1 MOL      0.121162
     56 H25         7.3520   -2.0640    0.5250 h1        1 MOL      0.121162
     57 N5          7.1280   -0.0320   -0.9470 n         1 MOL     -0.428824
     58 C19         7.3740    1.2790   -1.5440 c3        1 MOL      0.141303
     59 C20         7.3350    2.3220   -0.4700 c         1 MOL      0.445234
     60 O10         7.6750    3.4620   -0.7310 o         1 MOL     -0.557602
     61 C21         6.4240    1.6060   -2.6830 c3        1 MOL     -0.262816
     62 C22         4.9370    1.6060   -2.2910 c         1 MOL      0.903132
     63 O11         4.1060    1.6930   -3.1940 o         1 MOL     -0.771315
     64 O12         4.6290    1.4920   -1.0940 o         1 MOL     -0.771315
     65 H26         6.4720   -0.1160   -0.1780 hn        1 MOL      0.181655
     66 H27         8.4310    1.2640   -1.8190 h1        1 MOL      0.035712
     67 H28         6.6030    0.8300   -3.4340 hc        1 MOL      0.070019
     68 H29         6.6870    2.5770   -3.1100 hc        1 MOL      0.070019
     69 N6          6.9140    2.0100    0.7850 n         1 MOL     -0.264389
     70 C23         6.8440    3.0120    1.8430 c3        1 MOL     -0.138926
     71 C24         5.5670    3.8640    1.8200 c         1 MOL      0.455347
     72 O13         5.5780    4.9310    2.4890 o         1 MOL     -0.591878
     73 H30         6.8160    1.0310    1.0260 hn        1 MOL      0.219845
     74 H31         7.7330    3.6500    1.8110 h1        1 MOL      0.087972
     75 H32         6.9300    2.4380    2.7690 h1        1 MOL      0.087972
     76 N7          4.5380    3.4630    1.1100 n         1 MOL     -0.120652
     77 C25         3.2410    4.1200    1.1270 c3        1 MOL     -0.168458
     78 C26         2.1150    3.1010    1.2070 c         1 MOL      0.674639
     79 O14         2.3140    1.9160    0.8800 o         1 MOL     -0.747062
     80 C27         3.1560    5.1750    0.0020 c3        1 MOL      0.155737
     81 C28         4.0730    6.3860    0.2370 c3        1 MOL     -0.511743
     82 C29         3.6400    7.4200   -0.8490 c         1 MOL      0.644976
     83 N8          4.5990    7.6110   -1.8000 n         1 MOL     -0.716078
     84 O15         2.5770    8.0460   -0.9210 o         1 MOL     -0.541497
     85 H33         4.6860    2.7840    0.3710 hn        1 MOL      0.205630
     86 H34         3.1390    4.6730    2.0580 h1        1 MOL      0.075497
     87 H35         2.1330    5.5440   -0.1490 hc        1 MOL      0.019927
     88 H36         3.4080    4.6900   -0.9410 hc        1 MOL      0.019927
     89 H37         5.1040    6.0200    0.1720 hc        1 MOL      0.162144
     90 H38         4.0720    6.8120    1.2380 hc        1 MOL      0.162144
     91 H39         5.5050    7.2370   -1.5800 hn        1 MOL      0.321690
     92 H40         4.6130    8.4760   -2.3320 hn        1 MOL      0.321690
     93 N9          0.9300    3.5450    1.5800 n         1 MOL     -0.427182
     94 C30        -0.2410    2.6480    1.7990 c3        1 MOL      0.184990
     95 C31        -1.3790    3.0980    0.8250 c         1 MOL      0.238861
     96 O16        -1.9290    4.2130    1.0220 o         1 MOL     -0.559771
     97 C32        -0.6390    2.6270    3.2580 c3        1 MOL      0.194404
     98 C33        -1.8660    1.7800    3.5070 c3        1 MOL     -0.278457
     99 C34         0.5760    2.0990    4.0950 c3        1 MOL     -0.278457
    100 H41         0.9070    4.4570    2.0290 hn        1 MOL      0.266822
    101 H42         0.0050    1.6120    1.5680 h1        1 MOL      0.104978
    102 H43        -0.7040    3.6830    3.5260 hc        1 MOL     -0.026544
    103 H44        -1.7780    0.7820    3.0570 hc        1 MOL      0.056843
    104 H45        -2.1320    1.8090    4.5680 hc        1 MOL      0.056843
    105 H46        -2.7210    2.1990    2.9810 hc        1 MOL      0.056843
    106 H47         0.2290    1.7960    5.0870 hc        1 MOL      0.056843
    107 H48         1.0700    1.2460    3.6320 hc        1 MOL      0.056843
    108 H49         1.3080    2.9080    4.2020 hc        1 MOL      0.056843
    109 N10        -1.7640    2.2710   -0.1000 n         1 MOL      0.044198
    110 C35        -2.8930    2.3420   -0.9690 c3        1 MOL      0.076768
    111 C36        -4.1940    2.2310   -0.1840 c         1 MOL      0.367243
    112 O17        -4.2340    1.5680    0.8650 o         1 MOL     -0.293372
    113 C37        -2.7200    1.3390   -2.1260 c3        1 MOL     -0.154036
    114 C38        -3.6480    1.7420   -3.2780 c         1 MOL      0.654079
    115 N11        -3.2580    2.6880   -4.1320 n         1 MOL     -0.777018
    116 O18        -4.8180    1.3620   -3.1850 o         1 MOL     -0.572445
    117 H50        -1.3090    1.3720   -0.1980 hn        1 MOL     -0.081644
    118 H51        -2.9020    3.3740   -1.3250 h1        1 MOL      0.016921
    119 H52        -3.1350    0.3790   -1.8300 hc        1 MOL      0.095493
    120 H53        -1.7190    1.2250   -2.5520 hc        1 MOL      0.095493
    121 H54        -2.4070    3.1970   -4.0040 hn        1 MOL      0.366253
    122 H55        -3.9820    2.9710   -4.7840 hn        1 MOL      0.366253
    123 N12        -5.3010    2.7410   -0.6690 n         1 MOL     -0.463080
    124 C39        -6.6120    2.2290   -0.1370 c3        1 MOL      0.079987
    125 C40        -6.6590    0.6700   -0.0470 c         1 MOL      0.749676
    126 O19        -7.2200    0.1560    0.9190 o         1 MOL     -0.561460
    127 C41        -7.6770    2.7410   -1.1330 c3        1 MOL     -0.061839
    128 C42        -9.1120    2.3830   -0.8690 ca        1 MOL      0.071865
    129 C43        -9.5660    2.7350    0.4320 ca        1 MOL     -0.255834
    130 C44        -9.8720    1.5630   -1.6570 ca        1 MOL     -0.255834
    131 C45       -10.9390    2.5060    0.8030 ca        1 MOL     -0.117299
    132 C46       -11.1910    1.2900   -1.3010 ca        1 MOL     -0.117299
    133 C47       -11.8200    1.8230   -0.1190 ca        1 MOL      0.149779
    134 O20       -13.1040    1.4840    0.2250 oh        1 MOL     -0.453209
    135 H56        -5.2840    3.1320   -1.6000 hn        1 MOL      0.260140
    136 H57        -6.7530    2.6290    0.8710 h1        1 MOL      0.050686
    137 H58        -7.5640    2.2370   -2.0970 hc        1 MOL      0.046801
    138 H59        -7.7570    3.8030   -1.3620 hc        1 MOL      0.046801
    139 H60        -8.8880    3.2790    1.0760 ha        1 MOL      0.157029
    140 H61        -9.4400    1.0000   -2.4740 ha        1 MOL      0.157029
    141 H62       -11.2730    2.7660    1.8000 ha        1 MOL      0.114010
    142 H63       -11.7530    0.6630   -1.9810 ha        1 MOL      0.114010
    143 H64       -13.5420    1.0900   -0.5350 ho        1 MOL      0.353984
    144 N13        -6.0690   -0.1580   -1.0010 n         1 MOL     -0.498139
    145 C48        -6.0560   -1.6500   -0.9610 c3        1 MOL     -0.023342
    146 C49        -5.2610   -2.3000    0.1810 c         1 MOL      0.273861
    147 O21        -5.4560   -3.5070    0.4900 o         1 MOL     -0.509864
    148 C50        -5.6910   -2.1300   -2.3840 c3        1 MOL      0.061995
    149 C51        -5.9380   -3.6420   -2.7360 c3        1 MOL     -0.159877
    150 C52        -5.3240   -4.0780   -4.1020 c         1 MOL      0.631352
    151 O22        -5.8150   -3.6480   -5.2240 o         1 MOL     -0.721297
    152 O23        -4.2480   -4.7970   -3.9690 o         1 MOL     -0.721297
    153 H65        -5.4410    0.2720   -1.6650 hn        1 MOL      0.209042
    154 H66        -7.1120   -1.8970   -0.8110 h1        1 MOL      0.098130
    155 H67        -4.6480   -1.8760   -2.5770 hc        1 MOL      0.018741
    156 H68        -6.3020   -1.6420   -3.1370 hc        1 MOL      0.018741
    157 H69        -6.9750   -3.9770   -2.6970 hc        1 MOL      0.012944
    158 H70        -5.4480   -4.2830   -1.9960 hc        1 MOL      0.012944
    159 N14        -4.3440   -1.5580    0.7690 n         1 MOL     -0.026566
    160 C53        -3.5380   -2.0680    1.8320 c3        1 MOL      0.000231
    161 C54        -4.0500   -1.4830    3.1710 c         1 MOL      0.424754
    162 O24        -4.0040   -2.1330    4.1960 o         1 MOL     -0.548445
    163 C55        -2.1240   -1.4740    1.5570 c3        1 MOL     -0.097249
    164 C56        -1.3960   -2.0500    0.3320 c3        1 MOL      0.326924
    165 C57        -0.1220   -1.2890   -0.0280 c         1 MOL      0.293391
    166 O25         0.8860   -1.8730   -0.4540 o         1 MOL     -0.551935
    167 O26        -0.1240   -0.0010   -0.2230 o         1 MOL     -0.551935
    168 H71        -4.2170   -0.5790    0.5430 hn        1 MOL      0.116017
    169 H72        -3.3380   -3.1410    1.7650 h1        1 MOL      0.080682
    170 H73        -1.4850   -1.5450    2.4370 hc        1 MOL      0.060425
    171 H74        -2.1740   -0.4170    1.3140 hc        1 MOL      0.060425
    172 H75        -2.1000   -1.9980   -0.4880 hc        1 MOL     -0.027667
    173 H76        -1.2130   -3.1290    0.3360 hc        1 MOL     -0.027667
    174 N15        -4.7040   -0.3050    3.1550 n         1 MOL     -0.058821
    175 C58        -5.5360    0.2520    4.2150 c3        1 MOL     -0.154567
    176 H77        -5.7940   -0.5340    4.9250 h1        1 MOL      0.061175
    177 H78        -4.9890    1.0410    4.7310 h1        1 MOL      0.061175
    178 H79        -6.4480    0.6650    3.7830 h1        1 MOL      0.061175
    179 H80        -4.7310    0.2840    2.3420 hn        1 MOL      0.014953
    180 Ca1         2.3180    0.3150   -1.2160 Ca        1 MOL      1.791612
    181 O27         1.9400    2.8840   -2.2240 oh        1 MOL     -0.902854
    182 H81         2.6790    2.5840   -2.7650 ho        1 MOL      0.414480
    183 H82         1.7920    3.7850   -2.5010 ho        1 MOL      0.414480
    184 O28         0.5470   -0.0720   -3.2960 oh        1 MOL     -0.902854
    185 H83         0.9600   -0.8840   -3.5940 ho        1 MOL      0.414480
    186 H84        -0.2490    0.0040   -3.8180 ho        1 MOL      0.414480
@<TRIPOS>BOND
     1    1    2 1   
     2    1    4 1   
     3    1    5 1   
     4    1    6 1   
     5    2    3 2   
     6    2    7 1   
     7    7    8 1   
     8    7   15 1   
     9    8    9 1   
    10    8   11 1   
    11    8   16 1   
    12    9   10 2   
    13    9   19 1   
    14   11   12 1   
    15   11   17 1   
    16   11   18 1   
    17   12   13 1   
    18   12   14 1   
    19   19   20 1   
    20   19   27 1   
    21   20   21 1   
    22   20   23 1   
    23   20   28 1   
    24   21   22 2   
    25   21   38 1   
    26   23   24 1   
    27   23   25 1   
    28   23   29 1   
    29   24   26 1   
    30   24   30 1   
    31   24   31 1   
    32   25   32 1   
    33   25   33 1   
    34   25   34 1   
    35   26   35 1   
    36   26   36 1   
    37   26   37 1   
    38   38   39 1   
    39   38   46 1   
    40   39   40 1   
    41   39   42 1   
    42   39   47 1   
    43   40   41 2   
    44   40   50 1   
    45   42   43 1   
    46   42   48 1   
    47   42   49 1   
    48   43   44 1   
    49   43   45 1   
    50   50   51 1   
    51   50   54 1   
    52   51   52 1   
    53   51   55 1   
    54   51   56 1   
    55   52   53 2   
    56   52   57 1   
    57   57   58 1   
    58   57   65 1   
    59   58   59 1   
    60   58   61 1   
    61   58   66 1   
    62   59   60 2   
    63   59   69 1   
    64   61   62 1   
    65   61   67 1   
    66   61   68 1   
    67   62   63 1   
    68   62   64 1   
    69   69   70 1   
    70   69   73 1   
    71   70   71 1   
    72   70   74 1   
    73   70   75 1   
    74   71   72 2   
    75   71   76 1   
    76   76   77 1   
    77   76   85 1   
    78   77   78 1   
    79   77   80 1   
    80   77   86 1   
    81   78   79 2   
    82   78   93 1   
    83   80   81 1   
    84   80   87 1   
    85   80   88 1   
    86   81   82 1   
    87   81   89 1   
    88   81   90 1   
    89   82   83 1   
    90   82   84 2   
    91   83   91 1   
    92   83   92 1   
    93   93   94 1   
    94   93  100 1   
    95   94   95 1   
    96   94   97 1   
    97   94  101 1   
    98   95   96 2   
    99   95  109 1   
   100   97   98 1   
   101   97   99 1   
   102   97  102 1   
   103   98  103 1   
   104   98  104 1   
   105   98  105 1   
   106   99  106 1   
   107   99  107 1   
   108   99  108 1   
   109  109  110 1   
   110  109  117 1   
   111  110  111 1   
   112  110  113 1   
   113  110  118 1   
   114  111  112 2   
   115  111  123 1   
   116  113  114 1   
   117  113  119 1   
   118  113  120 1   
   119  114  115 1   
   120  114  116 2   
   121  115  121 1   
   122  115  122 1   
   123  123  124 1   
   124  123  135 1   
   125  124  125 1   
   126  124  127 1   
   127  124  136 1   
   128  125  126 2   
   129  125  144 1   
   130  127  128 1   
   131  127  137 1   
   132  127  138 1   
   133  128  129 ar  
   134  128  130 ar  
   135  129  131 ar  
   136  129  139 1   
   137  130  132 ar  
   138  130  140 1   
   139  131  133 ar  
   140  131  141 1   
   141  132  133 ar  
   142  132  142 1   
   143  133  134 1   
   144  134  143 1   
   145  144  145 1   
   146  144  153 1   
   147  145  146 1   
   148  145  148 1   
   149  145  154 1   
   150  146  147 2   
   151  146  159 1   
   152  148  149 1   
   153  148  155 1   
   154  148  156 1   
   155  149  150 1   
   156  149  157 1   
   157  149  158 1   
   158  150  151 1   
   159  150  152 1   
   160  159  160 1   
   161  159  168 1   
   162  160  161 1   
   163  160  163 1   
   164  160  169 1   
   165  161  162 2   
   166  161  174 1   
   167  163  164 1   
   168  163  170 1   
   169  163  171 1   
   170  164  165 1   
   171  164  172 1   
   172  164  173 1   
   173  165  166 1   
   174  165  167 1   
   175  174  175 1   
   176  174  179 1   
   177  175  176 1   
   178  175  177 1   
   179  175  178 1   
   180  181  182 1   
   181  181  183 1   
   182  184  185 1   
   183  184  186 1   
@<TRIPOS>SUBSTRUCTURE
     1 MOL         1 TEMP              0 ****  ****    0 ROOT
