@<TRIPOS>MOLECULE
MOL
  176   174     1     0     0
SMALL
resp


@<TRIPOS>ATOM
      1 C1          0.7870    3.8380    6.2160 c3        1 MOL     -0.403209
      2 C2          0.7310    3.3980    4.7710 c         1 MOL      0.694810
      3 O1          1.7380    3.2570    4.0480 o         1 MOL     -0.562754
      4 H1          1.5580    4.5990    6.3340 hc        1 MOL      0.105883
      5 H2         -0.1790    4.2520    6.5080 hc        1 MOL      0.105883
      6 H3          1.0220    2.9820    6.8480 hc        1 MOL      0.105883
      7 N1         -0.5270    3.2470    4.3150 n         1 MOL     -0.549190
      8 C3         -0.8690    2.7470    2.9910 c3        1 MOL      0.093190
      9 C4         -0.7080    3.8880    1.9830 c         1 MOL      0.639083
     10 O2         -1.1510    4.9880    2.2540 o         1 MOL     -0.595327
     11 C5         -2.3400    2.2010    3.0080 c3        1 MOL     -0.244196
     12 C6         -2.6170    1.4190    1.7180 c         1 MOL      0.893802
     13 O3         -2.6550    2.0700    0.6320 o         1 MOL     -0.803568
     14 O4         -2.6720    0.1900    1.6830 o         1 MOL     -0.803568
     15 H4         -1.3260    3.5620    4.8410 hn        1 MOL      0.309975
     16 H5         -0.1570    1.9640    2.7530 h1        1 MOL      0.039108
     17 H6         -3.0250    3.0370    3.1530 hc        1 MOL      0.069073
     18 H7         -2.3600    1.5470    3.8730 hc        1 MOL      0.069073
     19 N2         -0.3090    3.6520    0.7590 n         1 MOL     -0.572364
     20 C7         -0.1990    4.7350   -0.2250 c3        1 MOL      0.123127
     21 C8         -1.4770    5.1920   -0.8950 c         1 MOL      0.481613
     22 O5         -1.4670    6.1320   -1.7170 o         1 MOL     -0.563669
     23 C9          0.9030    4.3970   -1.2370 c3        1 MOL      0.002148
     24 C10         1.6410    5.6600   -1.8930 c3        1 MOL     -0.135233
     25 C11         2.7110    5.3360   -2.9170 c3        1 MOL      0.215299
     26 C12         3.5430    6.5510   -3.1450 c3        1 MOL     -0.002562
     27 N3          4.6050    6.3460   -4.1510 n4        1 MOL     -0.331738
     28 H8         -0.0800    2.7120    0.4610 hn        1 MOL      0.306412
     29 H9          0.1310    5.5680    0.3840 h1        1 MOL      0.075986
     30 H10         0.4220    3.8710   -2.0570 hc        1 MOL      0.062984
     31 H11         1.6330    3.7700   -0.7260 hc        1 MOL      0.062984
     32 H12         2.0610    6.2890   -1.1020 hc        1 MOL      0.033114
     33 H13         0.9560    6.3700   -2.3550 hc        1 MOL      0.033114
     34 H14         2.3330    4.9280   -3.8650 hc        1 MOL     -0.038966
     35 H15         3.2940    4.5380   -2.4510 hc        1 MOL     -0.038966
     36 H16         3.9980    6.7210   -2.1700 hx        1 MOL      0.081170
     37 H17         2.8380    7.3450   -3.3870 hx        1 MOL      0.081170
     38 H18         5.3270    5.6540   -3.9890 hn        1 MOL      0.318383
     39 H19         4.2670    6.2130   -5.0840 hn        1 MOL      0.318383
     40 H20         5.1490    7.1950   -4.1850 hn        1 MOL      0.318383
     41 N4         -2.5780    4.4600   -0.7020 n         1 MOL     -0.459903
     42 C13        -3.7940    4.5330   -1.6220 c3        1 MOL      0.064760
     43 C14        -5.0940    4.2600   -0.7930 c         1 MOL      0.544984
     44 O6         -6.0940    4.7740   -1.2320 o         1 MOL     -0.535296
     45 C15        -3.4540    3.6750   -2.8530 c3        1 MOL     -0.205947
     46 C16        -3.0830    2.2930   -2.4270 c         1 MOL      0.713347
     47 O7         -1.9160    1.9520   -2.4950 o         1 MOL     -0.727269
     48 O8         -3.9190    1.4730   -1.9360 o         1 MOL     -0.727269
     49 H21        -2.6030    3.7030   -0.0400 hn        1 MOL      0.385986
     50 H22        -3.9920    5.5470   -1.9730 h1        1 MOL      0.090661
     51 H23        -2.6840    4.1230   -3.4930 hc        1 MOL      0.066726
     52 H24        -4.3680    3.5880   -3.4350 hc        1 MOL      0.066726
     53 N5         -4.9350    3.5510    0.3410 n         1 MOL     -0.322518
     54 C17        -5.9940    3.1480    1.2940 c3        1 MOL     -0.025641
     55 C18        -6.7080    1.8200    0.8490 c         1 MOL      0.423541
     56 O9         -7.9180    1.5660    1.0850 o         1 MOL     -0.554644
     57 H25        -4.0330    3.0910    0.3080 hn        1 MOL      0.068479
     58 H26        -6.7460    3.9080    1.4590 h1        1 MOL      0.081495
     59 H27        -5.5350    2.7800    2.2220 h1        1 MOL      0.081495
     60 N6         -5.9960    0.9980    0.0780 n         1 MOL     -0.112262
     61 C19        -6.7010   -0.1950   -0.5010 c3        1 MOL     -0.117475
     62 C20        -6.8260   -1.3790    0.5050 c         1 MOL      0.510376
     63 O10        -7.6380   -2.2610    0.3250 o         1 MOL     -0.529625
     64 C21        -6.1760   -0.6030   -1.8470 c3        1 MOL     -0.064702
     65 C22        -5.0440   -1.5740   -1.7170 c         1 MOL      0.467624
     66 N7         -5.0900   -2.6930   -2.4230 n         1 MOL     -0.660427
     67 O11        -4.2330   -1.4610   -0.7920 o         1 MOL     -0.607283
     68 H28        -5.1230    1.3430   -0.2960 hn        1 MOL      0.186076
     69 H29        -7.7300    0.1150   -0.6730 h1        1 MOL      0.134671
     70 H30        -5.8870    0.2030   -2.5240 hc        1 MOL      0.056910
     71 H31        -7.0080   -1.1180   -2.3440 hc        1 MOL      0.056910
     72 H32        -5.7690   -2.8310   -3.1460 hn        1 MOL      0.345464
     73 H33        -4.3970   -3.3950   -2.2150 hn        1 MOL      0.345464
     74 N8         -5.9570   -1.4900    1.5430 n         1 MOL     -0.291581
     75 C23        -5.9040   -2.6280    2.4230 c3        1 MOL     -0.021947
     76 C24        -4.6630   -3.5520    2.4320 c         1 MOL      0.548600
     77 O12        -4.6880   -4.4720    3.2740 o         1 MOL     -0.574630
     78 H34        -5.2650   -0.7600    1.5060 hn        1 MOL      0.148956
     79 H35        -6.6890   -3.3370    2.1480 h1        1 MOL      0.072873
     80 H36        -6.1200   -2.3760    3.4580 h1        1 MOL      0.072873
     81 N9         -3.6620   -3.2360    1.6380 n         1 MOL     -0.558489
     82 C25        -2.4020   -3.9690    1.5850 c3        1 MOL      0.117428
     83 C26        -1.2180   -3.0080    1.2630 c         1 MOL      0.590102
     84 O13        -1.3220   -2.1490    0.4450 o         1 MOL     -0.604295
     85 C27        -2.6610   -5.2530    0.7240 c3        1 MOL      0.030172
     86 C28        -3.0720   -5.2150   -0.7850 ca        1 MOL     -0.001066
     87 C29        -2.4060   -4.4280   -1.7110 ca        1 MOL     -0.106990
     88 C30        -4.0560   -6.1300   -1.2700 ca        1 MOL     -0.106990
     89 C31        -2.7720   -4.5560   -3.0650 ca        1 MOL     -0.312870
     90 C32        -4.4470   -6.2770   -2.6070 ca        1 MOL     -0.312870
     91 C33        -3.7970   -5.4580   -3.5430 ca        1 MOL      0.380578
     92 O14        -4.0930   -5.4810   -4.8410 oh        1 MOL     -0.544721
     93 H37        -3.7380   -2.3890    1.0950 hn        1 MOL      0.441031
     94 H38        -2.2190   -4.3070    2.6070 h1        1 MOL      0.059950
     95 H39        -3.2900   -5.8880    1.3450 hc        1 MOL      0.018266
     96 H40        -1.7170   -5.7690    0.8370 hc        1 MOL      0.018266
     97 H41        -1.6110   -3.7320   -1.4770 ha        1 MOL      0.132470
     98 H42        -4.5360   -6.7040   -0.4890 ha        1 MOL      0.132470
     99 H43        -2.2640   -3.9350   -3.7870 ha        1 MOL      0.154642
    100 H44        -5.1950   -6.9920   -2.9100 ha        1 MOL      0.154642
    101 H45        -4.6440   -6.2390   -5.0770 ho        1 MOL      0.411240
    102 N10        -0.0640   -3.2670    1.8330 n         1 MOL     -0.470144
    103 C34         1.2350   -2.6340    1.4600 c3        1 MOL     -0.090209
    104 C35         2.1630   -3.5300    0.6840 c         1 MOL      0.715181
    105 O15         2.1290   -4.7220    0.8070 o         1 MOL     -0.583959
    106 C36         1.8870   -2.0380    2.7130 c3        1 MOL      0.071519
    107 C37         2.2870   -3.1940    3.7410 c3        1 MOL     -0.297801
    108 C38         1.0060   -0.8670    3.1860 c3        1 MOL     -0.179744
    109 C39         2.8940   -2.5760    5.0300 c3        1 MOL     -0.066276
    110 H46        -0.0460   -4.0300    2.5030 hn        1 MOL      0.259823
    111 H47         0.9780   -1.7780    0.8350 h1        1 MOL      0.168607
    112 H48         2.8120   -1.5430    2.4050 hc        1 MOL      0.010649
    113 H49         3.0620   -3.8310    3.3200 hc        1 MOL      0.124348
    114 H50         1.3230   -3.6430    3.9810 hc        1 MOL      0.124348
    115 H51         0.1460   -1.1040    3.8160 hc        1 MOL      0.070945
    116 H52         1.6360   -0.4250    3.9520 hc        1 MOL      0.070945
    117 H53         0.7530   -0.1090    2.4340 hc        1 MOL      0.070945
    118 H54         3.6630   -1.8760    4.7130 hc        1 MOL      0.031095
    119 H55         2.1560   -2.0860    5.6620 hc        1 MOL      0.031095
    120 H56         3.3970   -3.3560    5.6140 hc        1 MOL      0.031095
    121 N11         3.0370   -2.9490   -0.1720 n         1 MOL     -0.421634
    122 C40         4.2130   -3.6180   -0.7590 c3        1 MOL      0.075091
    123 C41         5.5110   -3.1300   -0.0740 c         1 MOL      0.363816
    124 O16         5.4850   -2.2810    0.7880 o         1 MOL     -0.360550
    125 C42         4.2570   -3.2310   -2.2940 c3        1 MOL     -0.113464
    126 O17         4.3450   -1.8380   -2.4880 oh        1 MOL     -0.377890
    127 H57         2.9200   -1.9720   -0.4030 hn        1 MOL      0.148038
    128 H58         4.1320   -4.7070   -0.6490 h1        1 MOL      0.097441
    129 H59         3.3900   -3.7020   -2.7640 h1        1 MOL      0.083352
    130 H60         4.9590   -3.8290   -2.8800 h1        1 MOL      0.083352
    131 H61         4.1100   -1.6100   -3.3980 ho        1 MOL      0.384085
    132 N12         6.6590   -3.7110   -0.4040 n         1 MOL     -0.321916
    133 C43         7.8560   -3.2980    0.1250 c3        1 MOL      0.173561
    134 C44         8.2140   -1.8180   -0.2990 c         1 MOL      0.323070
    135 O18         8.8990   -1.1210    0.4630 o         1 MOL     -0.490143
    136 C45         8.9950   -4.2100   -0.3030 c3        1 MOL     -0.382509
    137 H62         6.6420   -4.5390   -0.9810 hn        1 MOL      0.240261
    138 H63         7.7930   -3.3880    1.2090 h1        1 MOL      0.080722
    139 H64         9.9480   -3.7330   -0.0790 hc        1 MOL      0.112766
    140 H65         8.8680   -5.1630    0.2050 hc        1 MOL      0.112766
    141 H66         8.9850   -4.2970   -1.3900 hc        1 MOL      0.112766
    142 N13         7.7410   -1.3210   -1.4540 n         1 MOL     -0.136707
    143 C46         7.8600   -0.0010   -2.0740 c3        1 MOL      0.068292
    144 C47         6.9180    1.0500   -1.3660 c         1 MOL      0.361190
    145 O19         7.3090    2.1910   -1.0140 o         1 MOL     -0.488994
    146 C48         7.5500   -0.1310   -3.5790 c3        1 MOL     -0.298261
    147 H67         7.3640   -1.9880   -2.1120 hn        1 MOL      0.154800
    148 H68         8.8650    0.3850   -1.9110 h1        1 MOL      0.087820
    149 H69         6.5200   -0.3870   -3.7930 hc        1 MOL      0.082803
    150 H70         7.6850    0.8970   -3.9230 hc        1 MOL      0.082803
    151 H71         8.2340   -0.8190   -4.0910 hc        1 MOL      0.082803
    152 N14         5.6760    0.5960   -0.9580 n         1 MOL     -0.116956
    153 C49         4.8500    1.4120   -0.0800 c3        1 MOL     -0.181975
    154 C50         5.5650    1.5220    1.3150 c         1 MOL      0.411427
    155 O20         5.6540    2.6300    1.9320 o         1 MOL     -0.535912
    156 C51         3.3760    0.8340    0.1430 c3        1 MOL      0.097632
    157 C52         2.4620    0.9250   -1.0850 c3        1 MOL      0.118036
    158 C53         1.0600    0.4500   -0.9120 c         1 MOL      0.502436
    159 O21         0.6480   -0.5120   -1.5600 o         1 MOL     -0.640357
    160 O22         0.2950    0.9570   -0.0770 o         1 MOL     -0.640357
    161 H72         5.4220   -0.3150   -1.3050 hn        1 MOL      0.044117
    162 H73         4.9160    2.4250   -0.4640 h1        1 MOL      0.125607
    163 H74         2.8310    1.3760    0.9200 hc        1 MOL     -0.001121
    164 H75         3.3500   -0.2140    0.4350 hc        1 MOL     -0.001121
    165 H76         2.9250    0.4540   -1.9500 hc        1 MOL     -0.071355
    166 H77         2.4550    1.9700   -1.3520 hc        1 MOL     -0.071355
    167 N15         6.0510    0.4530    1.9420 n         1 MOL     -0.003169
    168 C54         6.7080    0.5030    3.2510 c3        1 MOL     -0.237513
    169 H78         7.4300    1.3190    3.2630 h1        1 MOL      0.096906
    170 H79         5.9610    0.6660    4.0270 h1        1 MOL      0.096906
    171 H80         7.2240   -0.4400    3.4350 h1        1 MOL      0.096906
    172 H81         6.0440   -0.4490    1.4910 hn        1 MOL      0.090255
    173 Ca1        -2.0510    0.0100   -0.8350 Ca        1 MOL      1.723057
    174 O23        -2.0850   -0.9450   -3.4990 oh        1 MOL     -0.796636
    175 H82        -2.8540   -0.4820   -3.8420 ho        1 MOL      0.399142
    176 H83        -1.6650   -1.3030   -4.2880 ho        1 MOL      0.399142
@<TRIPOS>BOND
     1    1    2 1   
     2    1    4 1   
     3    1    5 1   
     4    1    6 1   
     5    2    3 2   
     6    2    7 1   
     7    7    8 1   
     8    7   15 1   
     9    8    9 1   
    10    8   11 1   
    11    8   16 1   
    12    9   10 2   
    13    9   19 1   
    14   11   12 1   
    15   11   17 1   
    16   11   18 1   
    17   12   13 1   
    18   12   14 1   
    19   19   20 1   
    20   19   28 1   
    21   20   21 1   
    22   20   23 1   
    23   20   29 1   
    24   21   22 2   
    25   21   41 1   
    26   23   24 1   
    27   23   30 1   
    28   23   31 1   
    29   24   25 1   
    30   24   32 1   
    31   24   33 1   
    32   25   26 1   
    33   25   34 1   
    34   25   35 1   
    35   26   27 1   
    36   26   36 1   
    37   26   37 1   
    38   27   38 1   
    39   27   39 1   
    40   27   40 1   
    41   41   42 1   
    42   41   49 1   
    43   42   43 1   
    44   42   45 1   
    45   42   50 1   
    46   43   44 2   
    47   43   53 1   
    48   45   46 1   
    49   45   51 1   
    50   45   52 1   
    51   46   47 1   
    52   46   48 1   
    53   53   54 1   
    54   53   57 1   
    55   54   55 1   
    56   54   58 1   
    57   54   59 1   
    58   55   56 2   
    59   55   60 1   
    60   60   61 1   
    61   60   68 1   
    62   61   62 1   
    63   61   64 1   
    64   61   69 1   
    65   62   63 2   
    66   62   74 1   
    67   64   65 1   
    68   64   70 1   
    69   64   71 1   
    70   65   66 1   
    71   65   67 2   
    72   66   72 1   
    73   66   73 1   
    74   74   75 1   
    75   74   78 1   
    76   75   76 1   
    77   75   79 1   
    78   75   80 1   
    79   76   77 2   
    80   76   81 1   
    81   81   82 1   
    82   81   93 1   
    83   82   83 1   
    84   82   85 1   
    85   82   94 1   
    86   83   84 2   
    87   83  102 1   
    88   85   86 1   
    89   85   95 1   
    90   85   96 1   
    91   86   87 ar  
    92   86   88 ar  
    93   87   89 ar  
    94   87   97 1   
    95   88   90 ar  
    96   88   98 1   
    97   89   91 ar  
    98   89   99 1   
    99   90   91 ar  
   100   90  100 1   
   101   91   92 1   
   102   92  101 1   
   103  102  103 1   
   104  102  110 1   
   105  103  104 1   
   106  103  106 1   
   107  103  111 1   
   108  104  105 2   
   109  104  121 1   
   110  106  107 1   
   111  106  108 1   
   112  106  112 1   
   113  107  109 1   
   114  107  113 1   
   115  107  114 1   
   116  108  115 1   
   117  108  116 1   
   118  108  117 1   
   119  109  118 1   
   120  109  119 1   
   121  109  120 1   
   122  121  122 1   
   123  121  127 1   
   124  122  123 1   
   125  122  125 1   
   126  122  128 1   
   127  123  124 2   
   128  123  132 1   
   129  125  126 1   
   130  125  129 1   
   131  125  130 1   
   132  126  131 1   
   133  132  133 1   
   134  132  137 1   
   135  133  134 1   
   136  133  136 1   
   137  133  138 1   
   138  134  135 2   
   139  134  142 1   
   140  136  139 1   
   141  136  140 1   
   142  136  141 1   
   143  142  143 1   
   144  142  147 1   
   145  143  144 1   
   146  143  146 1   
   147  143  148 1   
   148  144  145 2   
   149  144  152 1   
   150  146  149 1   
   151  146  150 1   
   152  146  151 1   
   153  152  153 1   
   154  152  161 1   
   155  153  154 1   
   156  153  156 1   
   157  153  162 1   
   158  154  155 2   
   159  154  167 1   
   160  156  157 1   
   161  156  163 1   
   162  156  164 1   
   163  157  158 1   
   164  157  165 1   
   165  157  166 1   
   166  158  159 1   
   167  158  160 1   
   168  167  168 1   
   169  167  172 1   
   170  168  169 1   
   171  168  170 1   
   172  168  171 1   
   173  174  175 1   
   174  174  176 1   
@<TRIPOS>SUBSTRUCTURE
     1 MOL         1 TEMP              0 ****  ****    0 ROOT
