@<TRIPOS>MOLECULE
MOL
  169   169     1     0     0
SMALL
resp


@<TRIPOS>ATOM
      1 C1          0.2560    4.7530    5.5330 c3        1 MOL     -0.395582
      2 C2         -0.0230    4.2900    4.1300 c         1 MOL      0.745727
      3 O1          0.8760    4.2670    3.2680 o         1 MOL     -0.569226
      4 H1         -0.5630    5.3860    5.8760 hc        1 MOL      0.096690
      5 H2          0.3460    3.8880    6.1910 hc        1 MOL      0.096690
      6 H3          1.1860    5.3220    5.5500 hc        1 MOL      0.096690
      7 N1         -1.3040    3.9550    3.8510 n         1 MOL     -0.640971
      8 C3         -1.7420    3.5720    2.5650 c3        1 MOL      0.075128
      9 C4         -1.9750    4.7630    1.5990 c         1 MOL      0.567775
     10 O2         -2.1940    5.9110    1.9860 o         1 MOL     -0.572099
     11 C5         -2.9700    2.6650    2.6420 c3        1 MOL     -0.200705
     12 C6         -3.2210    1.7230    1.3900 c         1 MOL      0.784508
     13 O3         -3.6040    2.1760    0.3130 o         1 MOL     -0.767098
     14 O4         -2.9150    0.5320    1.5260 o         1 MOL     -0.767098
     15 H4         -2.0510    4.1470    4.5110 hn        1 MOL      0.329218
     16 H5         -0.9530    2.9000    2.2050 h1        1 MOL      0.127397
     17 H6         -3.8730    3.1610    2.9780 hc        1 MOL      0.046326
     18 H7         -2.7620    2.0120    3.4840 hc        1 MOL      0.046326
     19 N2         -1.8960    4.5310    0.2740 n         1 MOL     -0.576205
     20 C7         -1.9670    5.5810   -0.7710 c3        1 MOL      0.311167
     21 C8         -2.7690    5.1320   -2.0150 c         1 MOL      0.389078
     22 O5         -2.5190    5.7230   -3.0930 o         1 MOL     -0.547812
     23 C9         -0.4880    5.9170   -1.2330 c3        1 MOL     -0.318501
     24 H8         -1.7120    3.5950   -0.0660 hn        1 MOL      0.443948
     25 H9         -2.3900    6.5050   -0.3730 h1        1 MOL      0.019918
     26 H10         0.1280    6.1470   -0.3680 hc        1 MOL      0.079561
     27 H11        -0.2070    5.0090   -1.7680 hc        1 MOL      0.079561
     28 H12        -0.4270    6.7860   -1.8940 hc        1 MOL      0.079561
     29 N3         -3.5770    4.0840   -1.9120 n         1 MOL     -0.300011
     30 C10        -4.4220    3.5260   -2.9950 c3        1 MOL      0.045037
     31 C11        -5.7390    2.8780   -2.5570 c         1 MOL      0.487130
     32 O6         -6.7050    2.7510   -3.2860 o         1 MOL     -0.564028
     33 C12        -3.5470    2.4930   -3.8330 c3        1 MOL     -0.247949
     34 C13        -3.0230    1.2820   -3.0040 c         1 MOL      0.799678
     35 O7         -3.8010    0.6650   -2.2380 o         1 MOL     -0.731990
     36 O8         -1.8370    0.9570   -3.0980 o         1 MOL     -0.731990
     37 H13        -3.5990    3.5570   -1.0500 hn        1 MOL      0.069921
     38 H14        -4.7530    4.3030   -3.6870 h1        1 MOL      0.076447
     39 H15        -2.6270    3.0210   -4.1130 hc        1 MOL      0.071323
     40 H16        -4.0610    2.1280   -4.7210 hc        1 MOL      0.071323
     41 N4         -5.8960    2.4630   -1.2900 n         1 MOL     -0.305886
     42 C14        -7.0870    1.9310   -0.7040 c3        1 MOL     -0.301859
     43 C15        -7.4000    0.4370   -0.9340 c         1 MOL      0.644534
     44 O9         -8.5240    0.0220   -0.5420 o         1 MOL     -0.630544
     45 H17        -5.0140    2.3430   -0.8190 hn        1 MOL      0.327580
     46 H18        -7.9450    2.4850   -1.0940 h1        1 MOL      0.132076
     47 H19        -7.0280    2.1860    0.3560 h1        1 MOL      0.132076
     48 N5         -6.5000   -0.3210   -1.5980 n         1 MOL     -0.352584
     49 C16        -6.6730   -1.7500   -1.9900 c3        1 MOL     -0.109741
     50 C17        -6.8300   -2.8210   -0.8380 c         1 MOL      0.514607
     51 O10        -7.0510   -3.9470   -1.1050 o         1 MOL     -0.522237
     52 C18        -5.5630   -2.1650   -2.9590 c3        1 MOL     -0.068687
     53 C19        -4.1830   -2.2160   -2.3710 c         1 MOL      0.759296
     54 N6         -3.1690   -2.3280   -3.1250 n         1 MOL     -0.663715
     55 O11        -3.8340   -2.0350   -1.2120 o         1 MOL     -0.825214
     56 H20        -5.6750    0.1410   -1.9500 hn        1 MOL      0.273159
     57 H21        -7.6250   -1.6720   -2.5090 h1        1 MOL      0.115721
     58 H22        -5.4360   -1.4010   -3.7340 hc        1 MOL      0.039520
     59 H23        -5.8420   -3.0700   -3.4990 hc        1 MOL      0.039520
     60 H24        -3.3100   -2.4750   -4.1140 hn        1 MOL      0.299659
     61 H25        -2.2270   -2.2350   -2.7760 hn        1 MOL      0.299659
     62 N7         -6.7090   -2.4370    0.4410 n         1 MOL     -0.239048
     63 C20        -6.7550   -3.1690    1.6470 c3        1 MOL     -0.168026
     64 C21        -5.4430   -3.7410    2.1310 c         1 MOL      0.528653
     65 O12        -5.4830   -4.4310    3.1270 o         1 MOL     -0.622696
     66 H26        -6.5710   -1.4670    0.6640 hn        1 MOL      0.234685
     67 H27        -7.2710   -4.0880    1.3630 h1        1 MOL      0.102090
     68 H28        -7.2990   -2.6200    2.4140 h1        1 MOL      0.102090
     69 N8         -4.3430   -3.6180    1.4920 n         1 MOL     -0.227867
     70 C22        -3.0240   -4.2110    1.8470 c3        1 MOL      0.041052
     71 C23        -1.8890   -3.3030    1.7750 c         1 MOL      0.552005
     72 O13        -1.9680   -2.2210    1.2000 o         1 MOL     -0.607993
     73 C24        -2.7880   -5.4260    0.9150 c3        1 MOL      0.325985
     74 C25        -3.9120   -6.5240    1.0840 c3        1 MOL     -0.493134
     75 O14        -2.8150   -4.9060   -0.4390 oh        1 MOL     -0.538571
     76 H29        -4.4260   -3.1090    0.6260 hn        1 MOL      0.249421
     77 H30        -3.0820   -4.5940    2.8630 h1        1 MOL      0.036291
     78 H31        -1.8080   -5.8110    1.1660 h1        1 MOL     -0.007196
     79 H32        -1.9230   -4.9000   -0.7870 ho        1 MOL      0.364850
     80 H33        -3.6800   -7.2570    0.3150 hc        1 MOL      0.129624
     81 H34        -3.9020   -7.0720    2.0230 hc        1 MOL      0.129624
     82 H35        -4.8960   -6.0880    0.9080 hc        1 MOL      0.129624
     83 N9         -0.7630   -3.6560    2.3660 n         1 MOL     -0.478067
     84 C26         0.4790   -2.8070    2.2480 c3        1 MOL      0.407941
     85 C27         1.2900   -3.2510    1.0570 c         1 MOL      0.256035
     86 O15         1.6560   -4.3920    0.8730 o         1 MOL     -0.572224
     87 C28         1.2370   -3.0050    3.5410 c3        1 MOL     -0.140891
     88 C29         0.5590   -2.4510    4.7030 c3        1 MOL      0.248787
     89 C30         2.6680   -2.4580    3.5080 c3        1 MOL     -0.032658
     90 C31         0.5290   -0.9350    4.7500 c3        1 MOL     -0.083325
     91 H36        -0.6320   -4.6110    2.6330 hn        1 MOL      0.243342
     92 H37         0.2460   -1.7490    2.1230 h1        1 MOL      0.082305
     93 H38         1.2300   -4.0680    3.7740 hc        1 MOL      0.002557
     94 H39         0.9800   -2.7900    5.6620 hc        1 MOL     -0.069036
     95 H40        -0.4480   -2.8510    4.7440 hc        1 MOL     -0.069036
     96 H41         3.0240   -2.4870    4.5360 hc        1 MOL      0.001581
     97 H42         3.4140   -3.0390    2.9700 hc        1 MOL      0.001581
     98 H43         2.6280   -1.4890    3.0170 hc        1 MOL      0.001581
     99 H44        -0.1250   -0.6850    5.5800 hc        1 MOL      0.004661
    100 H45         1.5110   -0.4960    4.9240 hc        1 MOL      0.004661
    101 H46        -0.0390   -0.5210    3.9140 hc        1 MOL      0.004661
    102 N10         1.7360   -2.2750    0.2790 n         1 MOL     -0.104862
    103 C32         2.6200   -2.4210   -0.8000 c3        1 MOL      0.467671
    104 C33         3.9860   -1.7200   -0.5790 c         1 MOL      0.287874
    105 O16         4.2380   -1.0450    0.4370 o         1 MOL     -0.357947
    106 C34         2.0020   -1.7650   -1.9780 c3        1 MOL     -0.381768
    107 C35         0.6140   -2.1160   -2.4730 c         1 MOL      0.609686
    108 O17        -0.3730   -2.1320   -1.6740 o         1 MOL     -0.629572
    109 O18         0.4830   -2.3570   -3.6970 o         1 MOL     -0.629572
    110 H47         1.3940   -1.3770    0.5980 hn        1 MOL     -0.047349
    111 H48         2.9340   -3.4560   -0.9470 h1        1 MOL     -0.020312
    112 H49         2.6050   -2.0930   -2.8160 hc        1 MOL      0.086020
    113 H50         1.9380   -0.6950   -1.7860 hc        1 MOL      0.086020
    114 N11         4.9440   -2.0450   -1.4950 n         1 MOL     -0.687603
    115 C36         6.3760   -1.7930   -1.2060 c3        1 MOL      0.573951
    116 C37         6.7370   -0.3360   -0.8780 c         1 MOL      0.125650
    117 O19         7.5770   -0.1330    0.0110 o         1 MOL     -0.447387
    118 C38         7.2410   -2.4170   -2.3910 c3        1 MOL     -0.509299
    119 C39         8.6970   -1.9210   -2.3280 ca        1 MOL      0.314937
    120 C40         9.5110   -2.0940   -1.2100 ca        1 MOL     -0.249269
    121 C41         9.3210   -1.6140   -3.5790 ca        1 MOL     -0.249269
    122 C42        10.9120   -1.9790   -1.2530 ca        1 MOL     -0.015933
    123 C43        10.6850   -1.4400   -3.6180 ca        1 MOL     -0.015933
    124 C44        11.5110   -1.5960   -2.4770 ca        1 MOL     -0.271974
    125 H51         4.7550   -2.7390   -2.2060 hn        1 MOL      0.360417
    126 H52         6.6800   -2.3880   -0.3420 h1        1 MOL      0.023930
    127 H53         6.8490   -2.0850   -3.3430 hc        1 MOL      0.131164
    128 H54         7.4260   -3.4640   -2.1800 hc        1 MOL      0.131164
    129 H55         8.9890   -2.3360   -0.2920 ha        1 MOL      0.119757
    130 H56         8.8230   -1.7030   -4.5290 ha        1 MOL      0.119757
    131 H57        11.4850   -2.2050   -0.3650 ha        1 MOL      0.090475
    132 H58        11.1250   -1.2230   -4.5830 ha        1 MOL      0.090475
    133 H59        12.5640   -1.3960   -2.4710 ha        1 MOL      0.143296
    134 N12         6.0140    0.7350   -1.3470 n         1 MOL      0.011892
    135 C45         6.3170    2.1140   -0.9290 c3        1 MOL     -0.026573
    136 C46         5.5900    2.6520    0.3450 c         1 MOL      0.352671
    137 O20         5.9930    3.5420    1.0350 o         1 MOL     -0.511372
    138 C47         6.0550    2.9080   -2.2140 c3        1 MOL     -0.094147
    139 C48         4.8620    2.1600   -2.8960 c3        1 MOL      0.067557
    140 C49         5.0610    0.7150   -2.4640 c3        1 MOL      0.014523
    141 H60         7.3700    2.1910   -0.6990 h1        1 MOL      0.101424
    142 H61         5.7600    3.9540   -2.0720 hc        1 MOL      0.031854
    143 H62         6.9200    2.8480   -2.8740 hc        1 MOL      0.031854
    144 H63         3.8770    2.5260   -2.6170 hc        1 MOL      0.016567
    145 H64         4.8640    2.2650   -3.9800 hc        1 MOL      0.016567
    146 H65         4.1310    0.2060   -2.2110 h1        1 MOL      0.011166
    147 H66         5.5230    0.1410   -3.2640 h1        1 MOL      0.011166
    148 N13         4.5150    1.9910    0.7870 n         1 MOL     -0.091876
    149 C50         3.6180    2.2410    1.9530 c3        1 MOL     -0.091263
    150 C51         4.3030    1.5740    3.2170 c         1 MOL      0.401422
    151 O21         4.4470    2.1030    4.3240 o         1 MOL     -0.554281
    152 C52         2.3320    1.5130    1.6680 c3        1 MOL     -0.056892
    153 C53         1.6020    2.1050    0.4040 c3        1 MOL      0.558733
    154 C54         0.3290    1.3010    0.1270 c         1 MOL      0.395092
    155 O22         0.2080    0.1010    0.4520 o         1 MOL     -0.627779
    156 O23        -0.6470    1.8450   -0.4860 o         1 MOL     -0.627779
    157 H67         4.3540    1.2010    0.1750 hn        1 MOL      0.044381
    158 H68         3.4680    3.3070    2.1070 h1        1 MOL      0.123482
    159 H69         1.7660    1.6220    2.5950 hc        1 MOL      0.016354
    160 H70         2.6420    0.4940    1.4370 hc        1 MOL      0.016354
    161 H71         2.2680    2.0670   -0.4570 hc        1 MOL     -0.141868
    162 H72         1.3380    3.1590    0.3980 hc        1 MOL     -0.141868
    163 N14         5.0160    0.4920    2.9390 n         1 MOL      0.022256
    164 C55         6.0260   -0.0730    3.8150 c3        1 MOL     -0.179991
    165 H73         6.7400   -0.6470    3.2230 h1        1 MOL      0.068321
    166 H74         6.5480    0.7300    4.3340 h1        1 MOL      0.068321
    167 H75         5.5510   -0.7290    4.5440 h1        1 MOL      0.068321
    168 H76         4.8530    0.1010    2.0280 hn        1 MOL      0.065445
    169 Ca1        -1.9750   -0.2930   -0.6630 Ca        1 MOL      1.748048
@<TRIPOS>BOND
     1    1    2 1   
     2    1    4 1   
     3    1    5 1   
     4    1    6 1   
     5    2    3 2   
     6    2    7 1   
     7    7    8 1   
     8    7   15 1   
     9    8    9 1   
    10    8   11 1   
    11    8   16 1   
    12    9   10 2   
    13    9   19 1   
    14   11   12 1   
    15   11   17 1   
    16   11   18 1   
    17   12   13 1   
    18   12   14 1   
    19   19   20 1   
    20   19   24 1   
    21   20   21 1   
    22   20   23 1   
    23   20   25 1   
    24   21   22 2   
    25   21   29 1   
    26   23   26 1   
    27   23   27 1   
    28   23   28 1   
    29   29   30 1   
    30   29   37 1   
    31   30   31 1   
    32   30   33 1   
    33   30   38 1   
    34   31   32 2   
    35   31   41 1   
    36   33   34 1   
    37   33   39 1   
    38   33   40 1   
    39   34   35 1   
    40   34   36 1   
    41   41   42 1   
    42   41   45 1   
    43   42   43 1   
    44   42   46 1   
    45   42   47 1   
    46   43   44 2   
    47   43   48 1   
    48   48   49 1   
    49   48   56 1   
    50   49   50 1   
    51   49   52 1   
    52   49   57 1   
    53   50   51 2   
    54   50   62 1   
    55   52   53 1   
    56   52   58 1   
    57   52   59 1   
    58   53   54 1   
    59   53   55 2   
    60   54   60 1   
    61   54   61 1   
    62   62   63 1   
    63   62   66 1   
    64   63   64 1   
    65   63   67 1   
    66   63   68 1   
    67   64   65 2   
    68   64   69 1   
    69   69   70 1   
    70   69   76 1   
    71   70   71 1   
    72   70   73 1   
    73   70   77 1   
    74   71   72 2   
    75   71   83 1   
    76   73   74 1   
    77   73   75 1   
    78   73   78 1   
    79   74   80 1   
    80   74   81 1   
    81   74   82 1   
    82   75   79 1   
    83   83   84 1   
    84   83   91 1   
    85   84   85 1   
    86   84   87 1   
    87   84   92 1   
    88   85   86 2   
    89   85  102 1   
    90   87   88 1   
    91   87   89 1   
    92   87   93 1   
    93   88   90 1   
    94   88   94 1   
    95   88   95 1   
    96   89   96 1   
    97   89   97 1   
    98   89   98 1   
    99   90   99 1   
   100   90  100 1   
   101   90  101 1   
   102  102  103 1   
   103  102  110 1   
   104  103  104 1   
   105  103  106 1   
   106  103  111 1   
   107  104  105 2   
   108  104  114 1   
   109  106  107 1   
   110  106  112 1   
   111  106  113 1   
   112  107  108 1   
   113  107  109 1   
   114  114  115 1   
   115  114  125 1   
   116  115  116 1   
   117  115  118 1   
   118  115  126 1   
   119  116  117 2   
   120  116  134 1   
   121  118  119 1   
   122  118  127 1   
   123  118  128 1   
   124  119  120 ar  
   125  119  121 ar  
   126  120  122 ar  
   127  120  129 1   
   128  121  123 ar  
   129  121  130 1   
   130  122  124 ar  
   131  122  131 1   
   132  123  124 ar  
   133  123  132 1   
   134  124  133 1   
   135  134  135 1   
   136  134  140 1   
   137  135  136 1   
   138  135  138 1   
   139  135  141 1   
   140  136  137 2   
   141  136  148 1   
   142  138  139 1   
   143  138  142 1   
   144  138  143 1   
   145  139  140 1   
   146  139  144 1   
   147  139  145 1   
   148  140  146 1   
   149  140  147 1   
   150  148  149 1   
   151  148  157 1   
   152  149  150 1   
   153  149  152 1   
   154  149  158 1   
   155  150  151 2   
   156  150  163 1   
   157  152  153 1   
   158  152  159 1   
   159  152  160 1   
   160  153  154 1   
   161  153  161 1   
   162  153  162 1   
   163  154  155 1   
   164  154  156 1   
   165  163  164 1   
   166  163  168 1   
   167  164  165 1   
   168  164  166 1   
   169  164  167 1   
@<TRIPOS>SUBSTRUCTURE
     1 MOL         1 TEMP              0 ****  ****    0 ROOT
