@<TRIPOS>MOLECULE
MOL
  189   185     1     0     0
SMALL
resp


@<TRIPOS>ATOM
      1 C1          0.7830   -4.3790    5.9480 c3        1 MOL     -0.441629
      2 C2          1.1950   -3.8730    4.5280 c         1 MOL      0.734050
      3 O1          1.4750   -2.6880    4.4500 o         1 MOL     -0.592501
      4 H1          1.6420   -4.3250    6.6160 hc        1 MOL      0.114496
      5 H2         -0.0190   -3.7530    6.3380 hc        1 MOL      0.114496
      6 H3          0.4380   -5.4110    5.8810 hc        1 MOL      0.114496
      7 N1          1.3470   -4.6910    3.4700 n         1 MOL     -0.591640
      8 C3          1.8860   -4.2830    2.1870 c3        1 MOL      0.254090
      9 C4          1.7170   -5.3160    1.0560 c         1 MOL      0.438195
     10 O2          2.0630   -6.5030    1.0890 o         1 MOL     -0.547928
     11 C5          3.3980   -4.0910    2.3780 c3        1 MOL     -0.335188
     12 C6          4.1180   -3.2470    1.2980 c         1 MOL      0.880548
     13 O3          5.3990   -3.1700    1.3730 o         1 MOL     -0.744805
     14 O4          3.4670   -2.5660    0.5260 o         1 MOL     -0.744805
     15 H4          1.0180   -5.6410    3.6020 hn        1 MOL      0.307625
     16 H5          1.4400   -3.3350    1.8680 h1        1 MOL     -0.046259
     17 H6          3.8580   -5.0760    2.4030 hc        1 MOL      0.086872
     18 H7          3.6160   -3.6120    3.3250 hc        1 MOL      0.086872
     19 N2          1.1990   -4.7470   -0.0560 n         1 MOL     -0.199532
     20 C7          0.9260   -5.3890   -1.3610 c3        1 MOL     -0.005581
     21 C8          2.0500   -5.0790   -2.2950 c         1 MOL      0.533919
     22 O5          2.4690   -5.9270   -3.0300 o         1 MOL     -0.598827
     23 C9         -0.4130   -4.9600   -2.0250 c3        1 MOL      0.201072
     24 C10        -1.5570   -5.0390   -1.0340 c3        1 MOL     -0.056432
     25 C11        -0.6310   -5.7800   -3.3160 c3        1 MOL     -0.498563
     26 C12        -2.8430   -4.3220   -1.4600 c3        1 MOL     -0.027265
     27 H8          1.2290   -3.7340   -0.0140 hn        1 MOL      0.049563
     28 H9          0.8890   -6.4630   -1.1670 h1        1 MOL      0.046248
     29 H10        -0.3330   -3.9100   -2.3140 hc        1 MOL      0.031681
     30 H11        -1.2660   -4.5580   -0.0940 hc        1 MOL      0.001541
     31 H12        -1.7560   -6.0920   -0.8280 hc        1 MOL      0.001541
     32 H13        -0.0810   -5.3610   -4.1670 hc        1 MOL      0.119103
     33 H14        -0.4030   -6.8420   -3.2250 hc        1 MOL      0.119103
     34 H15        -1.6760   -5.7940   -3.6140 hc        1 MOL      0.119103
     35 H16        -2.4920   -3.3170   -1.7130 hc        1 MOL      0.014312
     36 H17        -3.2820   -4.8090   -2.3290 hc        1 MOL      0.014312
     37 H18        -3.5970   -4.3140   -0.6740 hc        1 MOL      0.014312
     38 N3          2.4320   -3.8430   -2.3500 n         1 MOL     -0.209303
     39 C13         3.1390   -3.2900   -3.4590 c3        1 MOL      0.086211
     40 C14         4.6350   -2.8850   -3.2260 c         1 MOL      0.307244
     41 O6          5.4230   -2.7890   -4.2050 o         1 MOL     -0.560733
     42 C15         2.3680   -2.1540   -4.1230 c3        1 MOL     -0.208885
     43 C16         2.1600   -0.9840   -3.1880 c         1 MOL      0.804550
     44 O7          2.8690   -0.7750   -2.1900 o         1 MOL     -0.742778
     45 O8          1.2360   -0.1660   -3.4350 o         1 MOL     -0.742778
     46 H19         1.9530   -3.1450   -1.8160 hn        1 MOL      0.201207
     47 H20         3.2580   -4.0560   -4.2270 h1        1 MOL      0.063926
     48 H21         1.3950   -2.5730   -4.3860 hc        1 MOL      0.046319
     49 H22         2.8750   -1.8350   -5.0330 hc        1 MOL      0.046319
     50 N4          5.0970   -2.7100   -1.9950 n         1 MOL      0.014468
     51 C17         6.5160   -2.5460   -1.6200 c3        1 MOL     -0.272106
     52 C18         7.1430   -1.1410   -1.8640 c         1 MOL      0.454353
     53 O9          8.3850   -0.9830   -1.8680 o         1 MOL     -0.579202
     54 H23         4.4120   -2.8620   -1.2700 hn        1 MOL      0.030439
     55 H24         7.0600   -3.3200   -2.1520 h1        1 MOL      0.127195
     56 H25         6.5980   -2.8680   -0.5770 h1        1 MOL      0.127195
     57 N5          6.3600   -0.1280   -1.9440 n         1 MOL     -0.166628
     58 C19         6.8010    1.2430   -2.1680 c3        1 MOL      0.078045
     59 C20         7.5210    1.8770   -1.0670 c         1 MOL      0.439685
     60 O10         8.6580    2.4300   -1.2300 o         1 MOL     -0.572750
     61 C21         5.5530    2.0590   -2.7200 c3        1 MOL     -0.435795
     62 C22         4.2470    2.1420   -1.9900 c         1 MOL      0.840876
     63 O11         4.2230    1.5490   -0.8800 o         1 MOL     -0.677033
     64 O12         3.3300    2.8840   -2.3720 o         1 MOL     -0.677033
     65 H26         5.3730   -0.2770   -1.8160 hn        1 MOL      0.220443
     66 H27         7.4630    1.1820   -3.0310 h1        1 MOL      0.075007
     67 H28         5.3050    1.6120   -3.6800 hc        1 MOL      0.103648
     68 H29         5.8440    3.1010   -2.7970 hc        1 MOL      0.103648
     69 N6          6.9080    1.8480    0.1090 n         1 MOL     -0.192544
     70 C23         7.2670    2.7350    1.2350 c3        1 MOL     -0.015592
     71 C24         6.0800    3.5770    1.7900 c         1 MOL      0.530118
     72 O13         6.3130    4.3400    2.7030 o         1 MOL     -0.593137
     73 H30         6.0260    1.3560    0.1020 hn        1 MOL      0.046464
     74 H31         7.9870    3.4900    0.9210 h1        1 MOL      0.051619
     75 H32         7.6940    2.1890    2.0800 h1        1 MOL      0.051619
     76 N7          4.9010    3.5150    1.1230 n         1 MOL     -0.339469
     77 C25         3.6630    4.2030    1.5670 c3        1 MOL      0.043955
     78 C26         2.5400    3.2130    1.9440 c         1 MOL      0.524813
     79 O14         2.7440    2.0420    1.8530 o         1 MOL     -0.495448
     80 C27         3.3700    5.2050    0.4560 c3        1 MOL      0.071666
     81 C28         4.5790    5.9730   -0.1330 c3        1 MOL     -0.289546
     82 C29         4.0410    6.8050   -1.2150 c         1 MOL      0.754029
     83 N8          4.7720    7.0850   -2.3050 n         1 MOL     -0.882046
     84 O15         2.9790    7.3980   -1.1990 o         1 MOL     -0.594291
     85 H33         4.7200    2.8840    0.3510 hn        1 MOL      0.275923
     86 H34         3.8300    4.8250    2.4490 h1        1 MOL      0.042793
     87 H35         2.6890    5.9740    0.8340 hc        1 MOL      0.017900
     88 H36         2.9390    4.7180   -0.4190 hc        1 MOL      0.017900
     89 H37         5.3280    5.3190   -0.5820 hc        1 MOL      0.085504
     90 H38         5.1490    6.5510    0.5940 hc        1 MOL      0.085504
     91 H39         5.6010    6.6030   -2.6170 hn        1 MOL      0.370051
     92 H40         4.3090    7.7250   -2.9340 hn        1 MOL      0.370051
     93 N9          1.3840    3.7660    2.2850 n         1 MOL     -0.620588
     94 C30         0.1810    2.9580    2.4560 c3        1 MOL      0.190870
     95 C31        -0.9510    3.3480    1.5110 c         1 MOL      0.383694
     96 O16        -1.3070    4.5150    1.3170 o         1 MOL     -0.597000
     97 C32        -0.3440    3.0500    3.8940 c3        1 MOL      0.316050
     98 C33        -1.8360    2.7820    4.0800 c3        1 MOL     -0.336792
     99 C34         0.4650    2.0370    4.8080 c3        1 MOL     -0.336792
    100 H41         1.3430    4.7500    2.5050 hn        1 MOL      0.330569
    101 H42         0.2830    1.8820    2.2760 h1        1 MOL      0.100217
    102 H43        -0.1850    4.0670    4.2560 hc        1 MOL     -0.053975
    103 H44        -2.3180    3.6540    3.6370 hc        1 MOL      0.067789
    104 H45        -2.1810    1.8330    3.6470 hc        1 MOL      0.067789
    105 H46        -2.0100    2.8130    5.1540 hc        1 MOL      0.067789
    106 H47         1.5080    2.3440    4.7000 hc        1 MOL      0.067789
    107 H48         0.1690    2.1410    5.8580 hc        1 MOL      0.067789
    108 H49         0.3340    0.9960    4.5230 hc        1 MOL      0.067789
    109 N10        -1.5850    2.3530    0.9520 n         1 MOL      0.002627
    110 C35        -2.6610    2.5540   -0.0300 c3        1 MOL      0.077849
    111 C36        -4.0800    2.2500    0.6230 c         1 MOL      0.068334
    112 O17        -4.0850    1.5480    1.6710 o         1 MOL     -0.299167
    113 C37        -2.4560    1.5280   -1.1610 c3        1 MOL     -0.409073
    114 C38        -3.5560    1.6340   -2.1430 c         1 MOL      0.734240
    115 N11        -3.8430    2.8430   -2.7400 n         1 MOL     -0.775865
    116 O18        -4.3920    0.7400   -2.3060 o         1 MOL     -0.546468
    117 H50        -1.2530    1.4260    1.1820 hn        1 MOL     -0.019805
    118 H51        -2.6190    3.5600   -0.4390 h1        1 MOL      0.082733
    119 H52        -2.5110    0.5500   -0.6820 hc        1 MOL      0.169473
    120 H53        -1.4430    1.6280   -1.5570 hc        1 MOL      0.169473
    121 H54        -3.2640    3.6330   -2.5170 hn        1 MOL      0.333281
    122 H55        -4.6730    2.9590   -3.3070 hn        1 MOL      0.333281
    123 N12        -5.1840    2.8470    0.1560 n         1 MOL     -0.025646
    124 C39        -6.5140    2.5730    0.7010 c3        1 MOL      0.017018
    125 C40        -6.8970    1.0900    0.6370 c         1 MOL      0.466920
    126 O19        -7.7830    0.6890    1.3810 o         1 MOL     -0.601481
    127 C41        -7.5600    3.4980    0.0700 c3        1 MOL     -0.086605
    128 C42        -7.6440    3.3960   -1.4340 ca        1 MOL     -0.057009
    129 C43        -6.9350    4.2340   -2.3040 ca        1 MOL     -0.073466
    130 C44        -8.5350    2.3960   -1.9100 ca        1 MOL     -0.073466
    131 C45        -7.1200    4.0360   -3.6950 ca        1 MOL     -0.435282
    132 C46        -8.5970    2.0940   -3.2510 ca        1 MOL     -0.435282
    133 C47        -7.8630    2.8960   -4.1480 ca        1 MOL      0.571995
    134 O20        -8.1750    2.7310   -5.4640 oh        1 MOL     -0.606885
    135 H56        -5.1000    3.5490   -0.5700 hn        1 MOL      0.108856
    136 H57        -6.5980    2.8270    1.7560 h1        1 MOL      0.064403
    137 H58        -7.2460    4.5090    0.3330 hc        1 MOL      0.038063
    138 H59        -8.5540    3.2930    0.4500 hc        1 MOL      0.038063
    139 H60        -6.2850    5.0170   -1.9300 ha        1 MOL      0.151335
    140 H61        -9.2160    1.9290   -1.2140 ha        1 MOL      0.151335
    141 H62        -6.5890    4.6260   -4.4220 ha        1 MOL      0.193735
    142 H63        -9.2430    1.2970   -3.5910 ha        1 MOL      0.193735
    143 H64        -8.9310    2.1450   -5.4470 ho        1 MOL      0.419853
    144 N13        -6.1980    0.2560   -0.0220 n         1 MOL     -0.082219
    145 C48        -6.2780   -1.1980    0.1340 c3        1 MOL     -0.071951
    146 C49        -5.4000   -1.8030    1.2500 c         1 MOL      0.422375
    147 O21        -5.7050   -2.8640    1.7080 o         1 MOL     -0.497320
    148 C50        -5.8700   -1.7490   -1.2570 c3        1 MOL      0.170719
    149 C51        -6.3080   -3.1460   -1.6740 c3        1 MOL     -0.318711
    150 C52        -7.8680   -3.2340   -1.9680 c         1 MOL      0.781370
    151 O22        -8.6080   -3.2190   -0.9870 o         1 MOL     -0.759688
    152 O23        -8.2530   -3.2810   -3.1410 o         1 MOL     -0.759688
    153 H65        -5.5090    0.6240   -0.6640 hn        1 MOL      0.151133
    154 H66        -7.2960   -1.5210    0.2990 h1        1 MOL      0.134287
    155 H67        -4.7820   -1.7310   -1.2570 hc        1 MOL     -0.012999
    156 H68        -6.2260   -1.0630   -2.0160 hc        1 MOL     -0.012999
    157 H69        -6.0550   -3.8350   -0.8670 hc        1 MOL      0.032975
    158 H70        -5.8840   -3.6330   -2.5520 hc        1 MOL      0.032975
    159 N14        -4.2780   -1.2000    1.6230 n         1 MOL     -0.209446
    160 C53        -3.4400   -1.5140    2.8160 c3        1 MOL     -0.012677
    161 C54        -3.9410   -1.0910    4.2080 c         1 MOL      0.468101
    162 O24        -3.8960   -1.8480    5.2100 o         1 MOL     -0.565569
    163 C55        -1.9880   -1.0460    2.5270 c3        1 MOL     -0.161978
    164 C56        -1.3590   -1.9760    1.4570 c3        1 MOL      0.080567
    165 C57        -0.1860   -1.2830    0.7430 c         1 MOL      0.730886
    166 O25         0.4720   -1.9710   -0.0480 o         1 MOL     -0.676412
    167 O26         0.1050   -0.0780    0.8270 o         1 MOL     -0.676412
    168 H71        -4.0000   -0.4080    1.0600 hn        1 MOL      0.064345
    169 H72        -3.4110   -2.5950    2.9760 h1        1 MOL      0.061705
    170 H73        -1.4130   -1.0050    3.4530 hc        1 MOL      0.064379
    171 H74        -1.8950   -0.0030    2.2520 hc        1 MOL      0.064379
    172 H75        -2.0320   -2.2610    0.6630 hc        1 MOL      0.004928
    173 H76        -1.1550   -2.8980    1.9950 hc        1 MOL      0.004928
    174 N15        -4.4490    0.1460    4.2750 n         1 MOL     -0.061596
    175 C58        -4.9910    0.8570    5.4540 c3        1 MOL     -0.261799
    176 H77        -5.1280    1.9110    5.2100 h1        1 MOL      0.094497
    177 H78        -5.9510    0.4210    5.7320 h1        1 MOL      0.094497
    178 H79        -4.2940    0.7650    6.2870 h1        1 MOL      0.094497
    179 H80        -4.4700    0.6110    3.3700 hn        1 MOL      0.082239
    180 Ca1         2.6420   -0.1540    0.3680 Ca        1 MOL      1.738424
    181 O27         2.2410   -0.6040    2.8380 oh        1 MOL     -0.929315
    182 O28         1.3600    1.6950   -1.3370 oh        1 MOL     -0.929315
    183 H81         1.9280   -1.4470    3.1880 ho        1 MOL      0.433488
    184 H82         1.0930    1.1550   -2.0840 ho        1 MOL      0.433488
    185 H83         2.4850   -0.1030    3.6140 ho        1 MOL      0.433488
    186 H84         2.0140    2.3060   -1.6990 ho        1 MOL      0.433488
    187 O29         5.1340   -0.4240    1.3830 oh        1 MOL     -0.929315
    188 H85         6.0430   -0.1800    1.5940 ho        1 MOL      0.433488
    189 H86         5.1530   -1.3740    1.3030 ho        1 MOL      0.433488
@<TRIPOS>BOND
     1    1    2 1   
     2    1    4 1   
     3    1    5 1   
     4    1    6 1   
     5    2    3 2   
     6    2    7 1   
     7    7    8 1   
     8    7   15 1   
     9    8    9 1   
    10    8   11 1   
    11    8   16 1   
    12    9   10 2   
    13    9   19 1   
    14   11   12 1   
    15   11   17 1   
    16   11   18 1   
    17   12   13 1   
    18   12   14 1   
    19   19   20 1   
    20   19   27 1   
    21   20   21 1   
    22   20   23 1   
    23   20   28 1   
    24   21   22 2   
    25   21   38 1   
    26   23   24 1   
    27   23   25 1   
    28   23   29 1   
    29   24   26 1   
    30   24   30 1   
    31   24   31 1   
    32   25   32 1   
    33   25   33 1   
    34   25   34 1   
    35   26   35 1   
    36   26   36 1   
    37   26   37 1   
    38   38   39 1   
    39   38   46 1   
    40   39   40 1   
    41   39   42 1   
    42   39   47 1   
    43   40   41 2   
    44   40   50 1   
    45   42   43 1   
    46   42   48 1   
    47   42   49 1   
    48   43   44 1   
    49   43   45 1   
    50   50   51 1   
    51   50   54 1   
    52   51   52 1   
    53   51   55 1   
    54   51   56 1   
    55   52   53 2   
    56   52   57 1   
    57   57   58 1   
    58   57   65 1   
    59   58   59 1   
    60   58   61 1   
    61   58   66 1   
    62   59   60 2   
    63   59   69 1   
    64   61   62 1   
    65   61   67 1   
    66   61   68 1   
    67   62   63 1   
    68   62   64 1   
    69   69   70 1   
    70   69   73 1   
    71   70   71 1   
    72   70   74 1   
    73   70   75 1   
    74   71   72 2   
    75   71   76 1   
    76   76   77 1   
    77   76   85 1   
    78   77   78 1   
    79   77   80 1   
    80   77   86 1   
    81   78   79 2   
    82   78   93 1   
    83   80   81 1   
    84   80   87 1   
    85   80   88 1   
    86   81   82 1   
    87   81   89 1   
    88   81   90 1   
    89   82   83 1   
    90   82   84 2   
    91   83   91 1   
    92   83   92 1   
    93   93   94 1   
    94   93  100 1   
    95   94   95 1   
    96   94   97 1   
    97   94  101 1   
    98   95   96 2   
    99   95  109 1   
   100   97   98 1   
   101   97   99 1   
   102   97  102 1   
   103   98  103 1   
   104   98  104 1   
   105   98  105 1   
   106   99  106 1   
   107   99  107 1   
   108   99  108 1   
   109  109  110 1   
   110  109  117 1   
   111  110  111 1   
   112  110  113 1   
   113  110  118 1   
   114  111  112 2   
   115  111  123 1   
   116  113  114 1   
   117  113  119 1   
   118  113  120 1   
   119  114  115 1   
   120  114  116 2   
   121  115  121 1   
   122  115  122 1   
   123  123  124 1   
   124  123  135 1   
   125  124  125 1   
   126  124  127 1   
   127  124  136 1   
   128  125  126 2   
   129  125  144 1   
   130  127  128 1   
   131  127  137 1   
   132  127  138 1   
   133  128  129 ar  
   134  128  130 ar  
   135  129  131 ar  
   136  129  139 1   
   137  130  132 ar  
   138  130  140 1   
   139  131  133 ar  
   140  131  141 1   
   141  132  133 ar  
   142  132  142 1   
   143  133  134 1   
   144  134  143 1   
   145  144  145 1   
   146  144  153 1   
   147  145  146 1   
   148  145  148 1   
   149  145  154 1   
   150  146  147 2   
   151  146  159 1   
   152  148  149 1   
   153  148  155 1   
   154  148  156 1   
   155  149  150 1   
   156  149  157 1   
   157  149  158 1   
   158  150  151 1   
   159  150  152 1   
   160  159  160 1   
   161  159  168 1   
   162  160  161 1   
   163  160  163 1   
   164  160  169 1   
   165  161  162 2   
   166  161  174 1   
   167  163  164 1   
   168  163  170 1   
   169  163  171 1   
   170  164  165 1   
   171  164  172 1   
   172  164  173 1   
   173  165  166 1   
   174  165  167 1   
   175  174  175 1   
   176  174  179 1   
   177  175  176 1   
   178  175  177 1   
   179  175  178 1   
   180  181  183 1   
   181  181  185 1   
   182  182  184 1   
   183  182  186 1   
   184  187  188 1   
   185  187  189 1   
@<TRIPOS>SUBSTRUCTURE
     1 MOL         1 TEMP              0 ****  ****    0 ROOT
