@<TRIPOS>MOLECULE
MOL
  186   183     1     0     0
SMALL
resp


@<TRIPOS>ATOM
      1 C1         -0.2980   -2.6320   -5.9300 c3        1 MOL     -0.136862
      2 C2         -0.7440   -2.4860   -4.4580 c         1 MOL      0.710458
      3 O1         -0.0820   -3.0460   -3.5650 o         1 MOL     -0.620437
      4 H1         -0.9290   -3.3680   -6.4300 hc        1 MOL      0.027033
      5 H2         -0.3910   -1.6710   -6.4360 hc        1 MOL      0.027033
      6 H3          0.7400   -2.9620   -5.9650 hc        1 MOL      0.027033
      7 N1         -1.8110   -1.7910   -4.1320 n         1 MOL     -0.460882
      8 C3         -2.5120   -1.5900   -2.7860 c3        1 MOL      0.151933
      9 C4         -3.0180   -2.9590   -2.3990 c         1 MOL      0.332741
     10 O2         -3.8120   -3.5610   -3.1740 o         1 MOL     -0.565374
     11 C5         -3.6950   -0.5850   -2.7780 c3        1 MOL     -0.290468
     12 C6         -4.5240   -0.8150   -1.5090 c         1 MOL      0.768198
     13 O3         -5.7440   -0.8970   -1.7530 o         1 MOL     -0.660625
     14 O4         -4.0520   -0.7080   -0.3910 o         1 MOL     -0.660625
     15 H4         -2.2920   -1.3720   -4.9230 hn        1 MOL      0.257277
     16 H5         -1.7370   -1.2710   -2.0960 h1        1 MOL      0.029047
     17 H6         -4.3600   -0.7320   -3.6210 hc        1 MOL      0.064479
     18 H7         -3.3130    0.4390   -2.8180 hc        1 MOL      0.064479
     19 N2         -2.7260   -3.4850   -1.2300 n         1 MOL      0.010078
     20 C7         -2.9440   -4.8880   -0.8180 c3        1 MOL     -0.087647
     21 C8         -3.7430   -5.1400    0.5440 c         1 MOL      0.285257
     22 O5         -4.0580   -6.2410    0.8970 o         1 MOL     -0.544478
     23 C9         -1.7400   -5.8440   -0.9900 c3        1 MOL      0.240082
     24 C10        -0.3850   -5.2190   -0.4250 c3        1 MOL     -0.129630
     25 C11        -1.5940   -6.1030   -2.5250 c3        1 MOL     -0.331063
     26 C12         0.7870   -6.2100   -0.1800 c3        1 MOL     -0.180703
     27 H8         -2.1070   -3.0030   -0.5950 hn        1 MOL      0.057816
     28 H9         -3.7530   -5.2820   -1.4400 h1        1 MOL      0.106249
     29 H10        -2.0150   -6.8010   -0.5310 hc        1 MOL     -0.015914
     30 H11        -0.6180   -4.6640    0.4770 hc        1 MOL      0.113028
     31 H12         0.0070   -4.5380   -1.1730 hc        1 MOL      0.113028
     32 H13        -1.2830   -5.2160   -3.0790 hc        1 MOL      0.066996
     33 H14        -0.8380   -6.8720   -2.6650 hc        1 MOL      0.066996
     34 H15        -2.5600   -6.3700   -2.9330 hc        1 MOL      0.066996
     35 H16         0.4730   -7.0240    0.4690 hc        1 MOL      0.033960
     36 H17         1.1060   -6.6890   -1.1130 hc        1 MOL      0.033960
     37 H18         1.6500   -5.7350    0.2800 hc        1 MOL      0.033960
     38 N3         -3.9960   -4.1250    1.3070 n         1 MOL     -0.051506
     39 C13        -4.8000   -4.0790    2.6300 c3        1 MOL     -0.000028
     40 C14        -6.1560   -3.4170    2.2660 c         1 MOL      0.430460
     41 O6         -7.0560   -3.2720    3.0430 o         1 MOL     -0.528839
     42 C15        -4.1580   -3.3530    3.8230 c3        1 MOL     -0.279745
     43 C16        -3.5650   -1.9700    3.5530 c         1 MOL      0.816294
     44 O7         -3.5990   -1.3840    2.4610 o         1 MOL     -0.722416
     45 O8         -2.9420   -1.4850    4.4880 o         1 MOL     -0.722416
     46 H19        -3.9420   -3.1840    0.9420 hn        1 MOL      0.047510
     47 H20        -5.0000   -5.1010    2.9900 h1        1 MOL      0.091227
     48 H21        -3.4300   -3.9670    4.3560 hc        1 MOL      0.080606
     49 H22        -4.9000   -3.0870    4.5760 hc        1 MOL      0.080606
     50 N4         -6.3010   -2.9240    1.0260 n         1 MOL     -0.242796
     51 C17        -7.5740   -2.4620    0.4390 c3        1 MOL     -0.352575
     52 C18        -7.9120   -1.0730    0.7880 c         1 MOL      0.610010
     53 O9         -9.0980   -0.7260    0.8210 o         1 MOL     -0.645612
     54 H23        -5.4290   -2.6340    0.5950 hn        1 MOL      0.209022
     55 H24        -8.3560   -3.1290    0.7840 h1        1 MOL      0.153503
     56 H25        -7.5350   -2.4310   -0.6540 h1        1 MOL      0.153503
     57 N5         -6.9540   -0.2650    1.2230 n         1 MOL     -0.143053
     58 C19        -7.2820    1.1190    1.7010 c3        1 MOL     -0.078399
     59 C20        -7.3200    2.1290    0.4860 c         1 MOL      0.445601
     60 O10        -7.4960    3.3230    0.7750 o         1 MOL     -0.557085
     61 C21        -6.3400    1.5950    2.8820 c3        1 MOL     -0.113959
     62 C22        -4.9190    1.8180    2.6090 c         1 MOL      0.816775
     63 O11        -4.4850    1.6430    1.4610 o         1 MOL     -0.758474
     64 O12        -4.2020    2.2980    3.5270 o         1 MOL     -0.758474
     65 H26        -5.9810   -0.5280    1.1430 hn        1 MOL      0.160385
     66 H27        -8.2890    1.0460    2.1130 h1        1 MOL      0.102999
     67 H28        -6.4570    0.8170    3.6370 hc        1 MOL      0.031133
     68 H29        -6.7980    2.4640    3.3350 hc        1 MOL      0.031133
     69 N6         -7.0520    1.7340   -0.7270 n         1 MOL     -0.285177
     70 C23        -7.0350    2.7270   -1.8260 c3        1 MOL      0.052423
     71 C24        -5.8450    3.7620   -1.8720 c         1 MOL      0.459409
     72 O13        -5.9730    4.7900   -2.5120 o         1 MOL     -0.593287
     73 H30        -6.7730    0.7860   -0.9480 hn        1 MOL      0.223930
     74 H31        -7.9920    3.2330   -1.9190 h1        1 MOL      0.031935
     75 H32        -6.9810    2.1900   -2.7740 h1        1 MOL      0.031935
     76 N7         -4.7080    3.4390   -1.3330 n         1 MOL     -0.277735
     77 C25        -3.4730    4.1830   -1.4820 c3        1 MOL      0.138144
     78 C26        -2.3800    3.1450   -1.3670 c         1 MOL      0.611717
     79 O14        -2.5290    2.0750   -0.7170 o         1 MOL     -0.746673
     80 C27        -3.3560    5.2090   -0.3230 c3        1 MOL     -0.048028
     81 C28        -3.7650    6.6430   -0.7290 c3        1 MOL     -0.462136
     82 C29        -3.2670    7.6910    0.2370 c         1 MOL      0.751255
     83 N8         -3.8880    7.6940    1.3980 n         1 MOL     -0.855302
     84 O15        -2.4180    8.5550    0.0080 o         1 MOL     -0.596627
     85 H33        -4.6660    2.5230   -0.8950 hn        1 MOL      0.257479
     86 H34        -3.5110    4.5820   -2.4940 h1        1 MOL      0.041998
     87 H35        -2.2930    5.2430   -0.0850 hc        1 MOL      0.072158
     88 H36        -3.8020    4.9840    0.6400 hc        1 MOL      0.072158
     89 H37        -4.8480    6.6490   -0.6200 hc        1 MOL      0.150450
     90 H38        -3.3410    6.8620   -1.7010 hc        1 MOL      0.150450
     91 H39        -4.5780    6.9990    1.6280 hn        1 MOL      0.373417
     92 H40        -3.6570    8.3190    2.1620 hn        1 MOL      0.373417
     93 N9         -1.2190    3.4080   -1.9940 n         1 MOL     -0.549855
     94 C30        -0.0170    2.4950   -2.1100 c3        1 MOL      0.135207
     95 C31         1.1510    2.9580   -1.2900 c         1 MOL      0.432656
     96 O16         1.6610    4.0470   -1.5640 o         1 MOL     -0.582333
     97 C32         0.3180    2.1960   -3.5950 c3        1 MOL      0.217551
     98 C33         1.5000    1.2960   -3.8230 c3        1 MOL     -0.307827
     99 C34        -0.8080    1.4660   -4.3100 c3        1 MOL     -0.307827
    100 H41        -1.0720    4.3500   -2.3320 hn        1 MOL      0.288244
    101 H42        -0.4120    1.5450   -1.7370 h1        1 MOL      0.126369
    102 H43         0.3750    3.1720   -4.0760 hc        1 MOL     -0.021232
    103 H44         2.3760    1.6630   -3.2800 hc        1 MOL      0.060792
    104 H45         1.3280    0.3130   -3.3790 hc        1 MOL      0.060792
    105 H46         1.7230    1.2520   -4.8900 hc        1 MOL      0.060792
    106 H47        -0.7680    1.6650   -5.3810 hc        1 MOL      0.060792
    107 H48        -0.7750    0.3740   -4.2670 hc        1 MOL      0.060792
    108 H49        -1.7790    1.7980   -3.9310 hc        1 MOL      0.060792
    109 N10         1.6690    2.1100   -0.4210 n         1 MOL     -0.096341
    110 C35         2.8530    2.3570    0.4260 c3        1 MOL      0.078594
    111 C36         4.2400    1.8370   -0.1730 c         1 MOL      0.217136
    112 O17         4.2650    1.0500   -1.1070 o         1 MOL     -0.253190
    113 C37         2.5260    1.7180    1.7480 c3        1 MOL     -0.071642
    114 C38         3.4090    2.0920    2.8910 c         1 MOL      0.734557
    115 N11         2.8430    2.7850    3.8780 n         1 MOL     -0.848634
    116 O18         4.6070    1.8250    2.9350 o         1 MOL     -0.593651
    117 H50         1.2660    1.1940   -0.2630 hn        1 MOL      0.101060
    118 H51         2.9620    3.4030    0.7380 h1        1 MOL      0.024017
    119 H52         2.6780    0.6580    1.5570 hc        1 MOL     -0.000233
    120 H53         1.5410    2.0130    2.1050 hc        1 MOL     -0.000233
    121 H54         1.8510    2.9880    3.8770 hn        1 MOL      0.386111
    122 H55         3.4000    2.9770    4.6950 hn        1 MOL      0.386111
    123 N12         5.3640    2.4000    0.2410 n         1 MOL     -0.358023
    124 C39         6.6680    1.9660   -0.2120 c3        1 MOL      0.199412
    125 C40         6.8170    0.4270   -0.0620 c         1 MOL      0.719969
    126 O19         7.2260   -0.2730   -0.9860 o         1 MOL     -0.530481
    127 C41         7.7360    2.7140    0.5120 c3        1 MOL     -0.111295
    128 C42         9.1320    2.2390    0.0680 ca        1 MOL     -0.040656
    129 C43         9.4820    2.3990   -1.2650 ca        1 MOL     -0.150939
    130 C44         9.9850    1.4450    0.9190 ca        1 MOL     -0.150939
    131 C45        10.6710    1.8730   -1.7910 ca        1 MOL     -0.233621
    132 C46        11.1770    1.0090    0.4000 ca        1 MOL     -0.233621
    133 C47        11.5140    1.2040   -0.9850 ca        1 MOL      0.314462
    134 O20        12.6040    0.6420   -1.6130 oh        1 MOL     -0.510146
    135 H56         5.3820    3.1640    0.9040 hn        1 MOL      0.248077
    136 H57         6.8390    2.2460   -1.2520 h1        1 MOL     -0.018186
    137 H58         7.5800    2.4950    1.5680 hc        1 MOL      0.048329
    138 H59         7.5780    3.7730    0.3010 hc        1 MOL      0.048329
    139 H60         8.8320    2.8930   -1.9680 ha        1 MOL      0.143932
    140 H61         9.7330    1.2380    1.9500 ha        1 MOL      0.143932
    141 H62        10.9690    1.9750   -2.8290 ha        1 MOL      0.134548
    142 H63        11.8280    0.3760    0.9950 ha        1 MOL      0.134548
    143 H64        13.2920    0.4330   -0.9750 ho        1 MOL      0.363235
    144 N13         6.4440   -0.0760    1.1290 n         1 MOL     -0.453263
    145 C48         6.6910   -1.5190    1.3350 c3        1 MOL      0.002724
    146 C49         5.7660   -2.3700    0.5060 c         1 MOL      0.289321
    147 O21         6.1030   -3.4690    0.1230 o         1 MOL     -0.511997
    148 C50         6.5150   -1.8900    2.7720 c3        1 MOL      0.020279
    149 C51         7.4310   -1.1200    3.6250 c3        1 MOL     -0.129243
    150 C52         7.4250   -1.5020    5.1270 c         1 MOL      0.624412
    151 O22         6.3090   -1.4160    5.7280 o         1 MOL     -0.718959
    152 O23         8.5270   -1.7970    5.7440 o         1 MOL     -0.718959
    153 H65         5.9590    0.4680    1.8170 hn        1 MOL      0.312417
    154 H66         7.7060   -1.8110    1.0650 h1        1 MOL      0.095946
    155 H67         6.7290   -2.9590    2.7910 hc        1 MOL      0.030164
    156 H68         5.4610   -1.6940    2.9630 hc        1 MOL      0.030164
    157 H69         7.2660   -0.0540    3.5340 hc        1 MOL     -0.000126
    158 H70         8.4520   -1.1910    3.2490 hc        1 MOL     -0.000126
    159 N14         4.6220   -1.9060    0.0100 n         1 MOL     -0.017676
    160 C53         3.8240   -2.5480   -1.0770 c3        1 MOL     -0.220035
    161 C54         4.5010   -2.3790   -2.5310 c         1 MOL      0.486635
    162 O24         4.3780   -3.3150   -3.3430 o         1 MOL     -0.568776
    163 C55         2.3980   -1.9520   -1.0910 c3        1 MOL      0.162184
    164 C56         1.6160   -1.9730    0.2720 c3        1 MOL     -0.087104
    165 C57         0.1790   -1.3680    0.3120 c         1 MOL      0.828520
    166 O25        -0.8300   -2.0560    0.5390 o         1 MOL     -0.765590
    167 O26         0.0280   -0.1600    0.0760 o         1 MOL     -0.765590
    168 H71         4.5300   -0.9060    0.1350 hn        1 MOL      0.066221
    169 H72         3.7600   -3.6110   -0.8440 h1        1 MOL      0.146618
    170 H73         1.7510   -2.4190   -1.8270 hc        1 MOL     -0.008058
    171 H74         2.4460   -0.8780   -1.2810 hc        1 MOL     -0.008058
    172 H75         2.2410   -1.5540    1.0690 hc        1 MOL     -0.006847
    173 H76         1.5630   -3.0220    0.5680 hc        1 MOL     -0.006847
    174 N15         5.0830   -1.2330   -2.8330 n         1 MOL      0.057049
    175 C58         5.7300   -0.9050   -4.0820 c3        1 MOL     -0.392316
    176 H77         5.2570   -1.4590   -4.8920 h1        1 MOL      0.127995
    177 H78         5.6360    0.1640   -4.2720 h1        1 MOL      0.127995
    178 H79         6.7850   -1.1730   -4.0260 h1        1 MOL      0.127995
    179 H80         5.1130   -0.5280   -2.1120 hn        1 MOL     -0.063726
    180 Ca1        -2.2430    0.2540    1.1400 Ca        1 MOL      1.780209
    181 O27        -1.6060    2.5750    2.4220 oh        1 MOL     -0.861737
    182 H81        -0.9000    3.1230    2.7840 ho        1 MOL      0.398395
    183 H82        -2.3500    2.7340    3.0050 ho        1 MOL      0.398395
    184 O28        -0.7430   -0.2450    3.2120 oh        1 MOL     -0.861737
    185 H83         0.1270   -0.1890    3.5910 ho        1 MOL      0.398395
    186 H84        -1.3310   -0.2920    3.9710 ho        1 MOL      0.398395
@<TRIPOS>BOND
     1    1    2 1   
     2    1    4 1   
     3    1    5 1   
     4    1    6 1   
     5    2    3 2   
     6    2    7 1   
     7    7    8 1   
     8    7   15 1   
     9    8    9 1   
    10    8   11 1   
    11    8   16 1   
    12    9   10 2   
    13    9   19 1   
    14   11   12 1   
    15   11   17 1   
    16   11   18 1   
    17   12   13 1   
    18   12   14 1   
    19   19   20 1   
    20   19   27 1   
    21   20   21 1   
    22   20   23 1   
    23   20   28 1   
    24   21   22 2   
    25   21   38 1   
    26   23   24 1   
    27   23   25 1   
    28   23   29 1   
    29   24   26 1   
    30   24   30 1   
    31   24   31 1   
    32   25   32 1   
    33   25   33 1   
    34   25   34 1   
    35   26   35 1   
    36   26   36 1   
    37   26   37 1   
    38   38   39 1   
    39   38   46 1   
    40   39   40 1   
    41   39   42 1   
    42   39   47 1   
    43   40   41 2   
    44   40   50 1   
    45   42   43 1   
    46   42   48 1   
    47   42   49 1   
    48   43   44 1   
    49   43   45 1   
    50   50   51 1   
    51   50   54 1   
    52   51   52 1   
    53   51   55 1   
    54   51   56 1   
    55   52   53 2   
    56   52   57 1   
    57   57   58 1   
    58   57   65 1   
    59   58   59 1   
    60   58   61 1   
    61   58   66 1   
    62   59   60 2   
    63   59   69 1   
    64   61   62 1   
    65   61   67 1   
    66   61   68 1   
    67   62   63 1   
    68   62   64 1   
    69   69   70 1   
    70   69   73 1   
    71   70   71 1   
    72   70   74 1   
    73   70   75 1   
    74   71   72 2   
    75   71   76 1   
    76   76   77 1   
    77   76   85 1   
    78   77   78 1   
    79   77   80 1   
    80   77   86 1   
    81   78   79 2   
    82   78   93 1   
    83   80   81 1   
    84   80   87 1   
    85   80   88 1   
    86   81   82 1   
    87   81   89 1   
    88   81   90 1   
    89   82   83 1   
    90   82   84 2   
    91   83   91 1   
    92   83   92 1   
    93   93   94 1   
    94   93  100 1   
    95   94   95 1   
    96   94   97 1   
    97   94  101 1   
    98   95   96 2   
    99   95  109 1   
   100   97   98 1   
   101   97   99 1   
   102   97  102 1   
   103   98  103 1   
   104   98  104 1   
   105   98  105 1   
   106   99  106 1   
   107   99  107 1   
   108   99  108 1   
   109  109  110 1   
   110  109  117 1   
   111  110  111 1   
   112  110  113 1   
   113  110  118 1   
   114  111  112 2   
   115  111  123 1   
   116  113  114 1   
   117  113  119 1   
   118  113  120 1   
   119  114  115 1   
   120  114  116 2   
   121  115  121 1   
   122  115  122 1   
   123  123  124 1   
   124  123  135 1   
   125  124  125 1   
   126  124  127 1   
   127  124  136 1   
   128  125  126 2   
   129  125  144 1   
   130  127  128 1   
   131  127  137 1   
   132  127  138 1   
   133  128  129 ar  
   134  128  130 ar  
   135  129  131 ar  
   136  129  139 1   
   137  130  132 ar  
   138  130  140 1   
   139  131  133 ar  
   140  131  141 1   
   141  132  133 ar  
   142  132  142 1   
   143  133  134 1   
   144  134  143 1   
   145  144  145 1   
   146  144  153 1   
   147  145  146 1   
   148  145  148 1   
   149  145  154 1   
   150  146  147 2   
   151  146  159 1   
   152  148  149 1   
   153  148  155 1   
   154  148  156 1   
   155  149  150 1   
   156  149  157 1   
   157  149  158 1   
   158  150  151 1   
   159  150  152 1   
   160  159  160 1   
   161  159  168 1   
   162  160  161 1   
   163  160  163 1   
   164  160  169 1   
   165  161  162 2   
   166  161  174 1   
   167  163  164 1   
   168  163  170 1   
   169  163  171 1   
   170  164  165 1   
   171  164  172 1   
   172  164  173 1   
   173  165  166 1   
   174  165  167 1   
   175  174  175 1   
   176  174  179 1   
   177  175  176 1   
   178  175  177 1   
   179  175  178 1   
   180  181  182 1   
   181  181  183 1   
   182  184  185 1   
   183  184  186 1   
@<TRIPOS>SUBSTRUCTURE
     1 MOL         1 TEMP              0 ****  ****    0 ROOT
