@<TRIPOS>MOLECULE
MOL
  189   185     1     0     0
SMALL
resp


@<TRIPOS>ATOM
      1 C1         -0.3020    2.5830   -5.1210 c3        1 MOL     -0.346977
      2 C2          0.1370    2.3380   -3.6230 c         1 MOL      0.738262
      3 O1         -0.3740    2.8250   -2.6320 o         1 MOL     -0.595120
      4 H1         -1.1850    1.9850   -5.3420 hc        1 MOL      0.090830
      5 H2         -0.5330    3.6390   -5.2650 hc        1 MOL      0.090830
      6 H3          0.5100    2.2950   -5.7900 hc        1 MOL      0.090830
      7 N1          1.3130    1.7050   -3.6090 n         1 MOL     -0.631306
      8 C3          2.0220    1.3490   -2.3880 c3        1 MOL      0.330018
      9 C4          2.6500    2.5900   -1.6960 c         1 MOL      0.436406
     10 O2          3.8670    2.6870   -1.6310 o         1 MOL     -0.503456
     11 C5          3.1090    0.3040   -2.7390 c3        1 MOL     -0.145271
     12 C6          3.8400   -0.3570   -1.5380 c         1 MOL      0.753689
     13 O3          3.4130   -0.1680   -0.3600 o         1 MOL     -0.701388
     14 O4          4.8520   -1.1160   -1.6730 o         1 MOL     -0.701388
     15 H4          1.8500    1.5850   -4.4500 hn        1 MOL      0.318758
     16 H5          1.3150    0.8260   -1.7400 h1        1 MOL     -0.000527
     17 H6          3.8450    0.6240   -3.4690 hc        1 MOL      0.008655
     18 H7          2.5140   -0.5030   -3.1440 hc        1 MOL      0.008655
     19 N2          1.8010    3.5330   -1.3160 n         1 MOL     -0.436788
     20 C7          2.2540    4.8370   -0.8030 c3        1 MOL      0.101699
     21 C8          2.9810    4.8890    0.5170 c         1 MOL      0.438205
     22 O5          3.0410    5.9160    1.1810 o         1 MOL     -0.572219
     23 C9          1.0810    5.8630   -0.8850 c3        1 MOL      0.031635
     24 C10         0.7280    6.2570   -2.3380 c3        1 MOL      0.065655
     25 C11         1.8130    7.0660   -3.0960 c3        1 MOL     -0.228124
     26 C12         2.5570    8.0660   -2.2350 c3        1 MOL      0.318960
     27 N3          3.7220    8.7090   -2.9480 n4        1 MOL     -0.606185
     28 H8          0.8090    3.3330   -1.2710 hn        1 MOL      0.296110
     29 H9          3.1190    5.1000   -1.4180 h1        1 MOL      0.033048
     30 H10         1.2870    6.7920   -0.3410 hc        1 MOL      0.012567
     31 H11         0.2000    5.5120   -0.3570 hc        1 MOL      0.012567
     32 H12        -0.0910    6.9730   -2.3590 hc        1 MOL      0.013220
     33 H13         0.3880    5.3680   -2.8540 hc        1 MOL      0.013220
     34 H14         1.2950    7.6260   -3.8770 hc        1 MOL      0.060354
     35 H15         2.4620    6.3530   -3.5940 hc        1 MOL      0.060354
     36 H16         2.9820    7.5880   -1.3560 hx        1 MOL      0.008611
     37 H17         1.9190    8.8470   -1.8210 hx        1 MOL      0.008611
     38 H18         3.4520    9.2660   -3.7500 hn        1 MOL      0.382618
     39 H19         4.1980    9.3790   -2.3700 hn        1 MOL      0.382618
     40 H20         4.3650    7.9570   -3.1460 hn        1 MOL      0.382618
     41 N4          3.5050    3.7800    0.9700 n         1 MOL     -0.236625
     42 C13         4.5010    3.6810    2.0690 c3        1 MOL      0.061406
     43 C14         5.7060    2.8390    1.8080 c         1 MOL      0.278048
     44 O6          6.7860    2.9090    2.4820 o         1 MOL     -0.508740
     45 C15         3.8080    3.3280    3.3880 c3        1 MOL     -0.057356
     46 C16         2.7100    2.2700    3.2300 c         1 MOL      0.643665
     47 O7          1.6500    2.4900    3.9130 o         1 MOL     -0.699383
     48 O8          2.7630    1.3170    2.4000 o         1 MOL     -0.699383
     49 H21         3.2500    2.9190    0.5060 hn        1 MOL      0.315283
     50 H22         4.8510    4.7030    2.2270 h1        1 MOL      0.064077
     51 H23         3.3690    4.2380    3.7850 hc        1 MOL      0.030374
     52 H24         4.5050    3.1190    4.2090 hc        1 MOL      0.030374
     53 N5          5.5620    2.0730    0.7310 n         1 MOL      0.035963
     54 C17         6.6510    1.2190    0.2680 c3        1 MOL     -0.110286
     55 C18         7.0550    0.0030    1.0390 c         1 MOL      0.523669
     56 O9          8.2400   -0.1600    1.2510 o         1 MOL     -0.593052
     57 H25         4.6480    2.0000    0.3110 hn        1 MOL     -0.176484
     58 H26         7.4860    1.8930    0.0820 h1        1 MOL      0.086854
     59 H27         6.4010    0.8270   -0.7140 h1        1 MOL      0.086854
     60 N6          6.1390   -0.8610    1.3910 n         1 MOL     -0.173499
     61 C19         6.3730   -2.1730    2.0040 c3        1 MOL     -0.192863
     62 C20         6.4220   -3.4010    1.0320 c         1 MOL      0.430879
     63 O10         6.5360   -4.5170    1.4730 o         1 MOL     -0.507209
     64 C21         5.3320   -2.4750    3.1070 c3        1 MOL     -0.089592
     65 C22         3.9000   -2.3150    2.6390 c         1 MOL      0.791646
     66 O11         2.9790   -1.9430    3.3870 o         1 MOL     -0.746031
     67 O12         3.5630   -2.5880    1.4290 o         1 MOL     -0.746031
     68 H28         5.1780   -0.6950    1.1210 hn        1 MOL      0.170934
     69 H29         7.2860   -2.1830    2.5960 h1        1 MOL      0.160145
     70 H30         5.3160   -1.7470    3.9210 hc        1 MOL      0.039789
     71 H31         5.4750   -3.4400    3.5870 hc        1 MOL      0.039789
     72 N7          6.4210   -3.1020   -0.2480 n         1 MOL     -0.235962
     73 C23         6.4010   -4.0780   -1.3580 c3        1 MOL     -0.166208
     74 C24         5.0350   -4.7380   -1.5660 c         1 MOL      0.602616
     75 O13         4.9860   -5.8120   -2.1650 o         1 MOL     -0.587553
     76 H32         6.2860   -2.1420   -0.5350 hn        1 MOL      0.254348
     77 H33         7.1500   -4.8470   -1.1900 h1        1 MOL      0.098826
     78 H34         6.6630   -3.5770   -2.2950 h1        1 MOL      0.098826
     79 N8          3.9420   -4.1120   -1.1080 n         1 MOL     -0.356581
     80 C25         2.5840   -4.6870   -1.0780 c3        1 MOL     -0.099125
     81 C26         1.4500   -3.6790   -1.0760 c         1 MOL      0.687713
     82 O14         1.5380   -2.5280   -0.6050 o         1 MOL     -0.621332
     83 C27         2.3270   -5.6140    0.0850 c3        1 MOL      0.487072
     84 C28         2.9880   -7.0220   -0.0710 c3        1 MOL     -0.332469
     85 O15         2.6300   -5.0510    1.3280 oh        1 MOL     -0.656963
     86 H35         4.1800   -3.3300   -0.5140 hn        1 MOL      0.252125
     87 H36         2.4940   -5.2810   -1.9820 h1        1 MOL      0.071636
     88 H37         1.2650   -5.8370    0.1160 h1        1 MOL     -0.018446
     89 H38         3.2250   -4.2980    1.2940 ho        1 MOL      0.419412
     90 H39         2.4420   -7.7660    0.5050 hc        1 MOL      0.073112
     91 H40         2.8280   -7.4310   -1.0690 hc        1 MOL      0.073112
     92 H41         3.9990   -6.9280    0.3240 hc        1 MOL      0.073112
     93 N9          0.2780   -4.0050   -1.6720 n         1 MOL     -0.611010
     94 C29        -0.8510   -3.1410   -1.8870 c3        1 MOL      0.004387
     95 C30        -2.0000   -3.6780   -1.0710 c         1 MOL      0.484879
     96 O16        -2.3900   -4.8870   -1.1600 o         1 MOL     -0.578241
     97 C31        -1.2220   -2.9630   -3.4150 c3        1 MOL      0.156407
     98 C32        -0.0800   -2.1840   -4.1770 c3        1 MOL      0.105690
     99 C33        -2.5890   -2.1630   -3.5600 c3        1 MOL     -0.356135
    100 C34        -0.2320   -2.3310   -5.7240 c3        1 MOL     -0.256398
    101 H42         0.1320   -4.9210   -2.0460 hn        1 MOL      0.291414
    102 H43        -0.5870   -2.1390   -1.5640 h1        1 MOL      0.095736
    103 H44        -1.4050   -3.9060   -3.9170 hc        1 MOL      0.024125
    104 H45         0.8460   -2.7510   -4.0850 hc        1 MOL      0.007609
    105 H46        -0.0150   -1.1150   -3.9860 hc        1 MOL      0.007609
    106 H47        -2.8670   -1.6740   -4.4980 hc        1 MOL      0.071879
    107 H48        -3.4550   -2.7540   -3.2610 hc        1 MOL      0.071879
    108 H49        -2.5350   -1.3110   -2.8880 hc        1 MOL      0.071879
    109 H50        -1.1120   -1.7360   -5.9750 hc        1 MOL      0.054733
    110 H51         0.6100   -2.0050   -6.3300 hc        1 MOL      0.054733
    111 H52        -0.3880   -3.3800   -5.9610 hc        1 MOL      0.054733
    112 N10        -2.5900   -2.8090   -0.3200 n         1 MOL     -0.108369
    113 C35        -3.8740   -3.0510    0.5190 c3        1 MOL     -0.053331
    114 C36        -5.0640   -2.3240   -0.1130 c         1 MOL      0.458060
    115 O17        -4.9140   -1.4710   -0.9550 o         1 MOL     -0.448551
    116 C37        -3.7600   -2.5930    1.9830 c3        1 MOL      0.230270
    117 C38        -2.7180   -3.2720    2.8810 c3        1 MOL     -0.220470
    118 O18        -3.5100   -1.1400    2.0370 oh        1 MOL     -0.623467
    119 H53        -2.2020   -1.8790   -0.3360 hn        1 MOL      0.129302
    120 H54        -4.0770   -4.1130    0.4240 h1        1 MOL      0.054758
    121 H55        -4.7540   -2.8080    2.3770 h1        1 MOL      0.017348
    122 H56        -2.6240   -1.0120    1.6920 ho        1 MOL      0.396662
    123 H57        -2.9510   -4.3270    3.0160 hc        1 MOL      0.070386
    124 H58        -1.7200   -3.1930    2.4620 hc        1 MOL      0.070386
    125 H59        -2.7800   -2.8350    3.8870 hc        1 MOL      0.070386
    126 N11        -6.2850   -2.7490    0.2640 n         1 MOL     -0.301830
    127 C39        -7.5340   -2.1540   -0.2180 c3        1 MOL     -0.116547
    128 C40        -7.6860   -0.6290   -0.1050 c         1 MOL      0.398900
    129 O19        -8.1680    0.0230   -1.0070 o         1 MOL     -0.475622
    130 C41        -8.8740   -2.6750    0.4120 c3        1 MOL      0.142436
    131 C42        -9.2040   -4.1290    0.0720 c3        1 MOL     -0.253221
    132 O20        -8.7460   -2.7350    1.8570 oh        1 MOL     -0.630998
    133 H60        -6.2760   -3.5830    0.8420 hn        1 MOL      0.290686
    134 H61        -7.6180   -2.2670   -1.3050 h1        1 MOL      0.136734
    135 H62        -9.7370   -2.1230    0.0360 h1        1 MOL      0.098046
    136 H63        -9.5730   -3.1270    2.1570 ho        1 MOL      0.421199
    137 H64        -8.4460   -4.7940    0.4920 hc        1 MOL      0.077719
    138 H65       -10.1690   -4.4560    0.4510 hc        1 MOL      0.077719
    139 H66        -9.2050   -4.2800   -1.0050 hc        1 MOL      0.077719
    140 N12        -7.1990   -0.0950    1.0290 n         1 MOL     -0.233389
    141 C43        -7.0260    1.3520    1.3460 c3        1 MOL     -0.219895
    142 C44        -6.1410    2.0300    0.2660 c         1 MOL      0.408829
    143 O21        -6.4660    3.1870   -0.1190 o         1 MOL     -0.554686
    144 C45        -6.2920    1.4730    2.7170 c3        1 MOL      0.048017
    145 C46        -5.9330    2.8630    3.1800 c3        1 MOL     -0.058252
    146 C47        -5.6910    2.9220    4.6820 c3        1 MOL      0.121911
    147 C48        -5.1260    4.3000    5.0540 c3        1 MOL      0.012275
    148 N13        -4.9160    4.3540    6.5630 n4        1 MOL     -0.431574
    149 H67        -6.9850   -0.8320    1.6860 hn        1 MOL      0.245280
    150 H68        -8.0230    1.8000    1.2480 h1        1 MOL      0.157132
    151 H69        -5.3950    0.8490    2.6680 hc        1 MOL      0.019518
    152 H70        -6.8590    0.9810    3.4960 hc        1 MOL      0.019518
    153 H71        -6.7630    3.5480    2.9840 hc        1 MOL      0.024698
    154 H72        -5.0170    3.2530    2.7380 hc        1 MOL      0.024698
    155 H73        -5.0290    2.1130    4.9990 hc        1 MOL     -0.008902
    156 H74        -6.6650    2.7590    5.1390 hc        1 MOL     -0.008902
    157 H75        -5.8640    5.0170    4.6970 hx        1 MOL      0.102462
    158 H76        -4.1670    4.4150    4.5650 hx        1 MOL      0.102462
    159 H77        -4.3320    5.1610    6.7420 hn        1 MOL      0.346869
    160 H78        -5.7680    4.5300    7.0700 hn        1 MOL      0.346869
    161 H79        -4.5180    3.4710    6.8340 hn        1 MOL      0.346869
    162 N14        -5.1540    1.3860   -0.2490 n         1 MOL      0.033687
    163 C49        -4.2520    1.8280   -1.3050 c3        1 MOL     -0.375049
    164 C50        -4.8070    1.7930   -2.7120 c         1 MOL      0.641891
    165 O22        -4.4000    2.6190   -3.5320 o         1 MOL     -0.567010
    166 C51        -2.8850    1.0790   -1.1700 c3        1 MOL      0.155257
    167 C52        -2.0580    1.3910    0.1750 c3        1 MOL     -0.126152
    168 C53        -0.8880    0.5810    0.3940 c         1 MOL      0.785051
    169 O23        -1.0570   -0.6290    0.6140 o         1 MOL     -0.750369
    170 O24         0.2590    1.0730    0.4890 o         1 MOL     -0.750369
    171 H80        -5.0880    0.3960   -0.0580 hn        1 MOL      0.158991
    172 H81        -4.0120    2.8750   -1.0750 h1        1 MOL      0.124508
    173 H82        -2.2920    1.3130   -2.0540 hc        1 MOL     -0.003410
    174 H83        -3.1310    0.0160   -1.2310 hc        1 MOL     -0.003410
    175 H84        -2.7230    1.3210    1.0350 hc        1 MOL      0.034238
    176 H85        -1.8900    2.4680    0.1130 hc        1 MOL      0.034238
    177 N15        -5.7010    0.8170   -2.9800 n         1 MOL     -0.269980
    178 C54        -6.4770    0.9160   -4.2580 c3        1 MOL     -0.290229
    179 H86        -7.0770    0.0150   -4.3890 h1        1 MOL      0.121553
    180 H87        -7.1330    1.7860   -4.2190 h1        1 MOL      0.121553
    181 H88        -5.7870    1.0170   -5.0950 h1        1 MOL      0.121553
    182 H89        -5.9710    0.2290   -2.1940 hn        1 MOL      0.241662
    183 Ca1         1.5820   -0.8840    1.4100 Ca        1 MOL      1.760440
    184 O25         0.6350   -2.9620    2.9580 oh        1 MOL     -0.855916
    185 H90         0.1260   -2.9630    3.7650 ho        1 MOL      0.391957
    186 H91         1.5390   -3.0450    3.2470 ho        1 MOL      0.391957
    187 O26         0.2480    0.2140    3.4410 oh        1 MOL     -0.855916
    188 H92         0.8740    0.8550    3.7700 ho        1 MOL      0.391957
    189 H93        -0.4240    0.1670    4.1230 ho        1 MOL      0.391957
@<TRIPOS>BOND
     1    1    2 1   
     2    1    4 1   
     3    1    5 1   
     4    1    6 1   
     5    2    3 2   
     6    2    7 1   
     7    7    8 1   
     8    7   15 1   
     9    8    9 1   
    10    8   11 1   
    11    8   16 1   
    12    9   10 2   
    13    9   19 1   
    14   11   12 1   
    15   11   17 1   
    16   11   18 1   
    17   12   13 1   
    18   12   14 1   
    19   19   20 1   
    20   19   28 1   
    21   20   21 1   
    22   20   23 1   
    23   20   29 1   
    24   21   22 2   
    25   21   41 1   
    26   23   24 1   
    27   23   30 1   
    28   23   31 1   
    29   24   25 1   
    30   24   32 1   
    31   24   33 1   
    32   25   26 1   
    33   25   34 1   
    34   25   35 1   
    35   26   27 1   
    36   26   36 1   
    37   26   37 1   
    38   27   38 1   
    39   27   39 1   
    40   27   40 1   
    41   41   42 1   
    42   41   49 1   
    43   42   43 1   
    44   42   45 1   
    45   42   50 1   
    46   43   44 2   
    47   43   53 1   
    48   45   46 1   
    49   45   51 1   
    50   45   52 1   
    51   46   47 1   
    52   46   48 1   
    53   53   54 1   
    54   53   57 1   
    55   54   55 1   
    56   54   58 1   
    57   54   59 1   
    58   55   56 2   
    59   55   60 1   
    60   60   61 1   
    61   60   68 1   
    62   61   62 1   
    63   61   64 1   
    64   61   69 1   
    65   62   63 2   
    66   62   72 1   
    67   64   65 1   
    68   64   70 1   
    69   64   71 1   
    70   65   66 1   
    71   65   67 1   
    72   72   73 1   
    73   72   76 1   
    74   73   74 1   
    75   73   77 1   
    76   73   78 1   
    77   74   75 2   
    78   74   79 1   
    79   79   80 1   
    80   79   86 1   
    81   80   81 1   
    82   80   83 1   
    83   80   87 1   
    84   81   82 2   
    85   81   93 1   
    86   83   84 1   
    87   83   85 1   
    88   83   88 1   
    89   84   90 1   
    90   84   91 1   
    91   84   92 1   
    92   85   89 1   
    93   93   94 1   
    94   93  101 1   
    95   94   95 1   
    96   94   97 1   
    97   94  102 1   
    98   95   96 2   
    99   95  112 1   
   100   97   98 1   
   101   97   99 1   
   102   97  103 1   
   103   98  100 1   
   104   98  104 1   
   105   98  105 1   
   106   99  106 1   
   107   99  107 1   
   108   99  108 1   
   109  100  109 1   
   110  100  110 1   
   111  100  111 1   
   112  112  113 1   
   113  112  119 1   
   114  113  114 1   
   115  113  116 1   
   116  113  120 1   
   117  114  115 2   
   118  114  126 1   
   119  116  117 1   
   120  116  118 1   
   121  116  121 1   
   122  117  123 1   
   123  117  124 1   
   124  117  125 1   
   125  118  122 1   
   126  126  127 1   
   127  126  133 1   
   128  127  128 1   
   129  127  130 1   
   130  127  134 1   
   131  128  129 2   
   132  128  140 1   
   133  130  131 1   
   134  130  132 1   
   135  130  135 1   
   136  131  137 1   
   137  131  138 1   
   138  131  139 1   
   139  132  136 1   
   140  140  141 1   
   141  140  149 1   
   142  141  142 1   
   143  141  144 1   
   144  141  150 1   
   145  142  143 2   
   146  142  162 1   
   147  144  145 1   
   148  144  151 1   
   149  144  152 1   
   150  145  146 1   
   151  145  153 1   
   152  145  154 1   
   153  146  147 1   
   154  146  155 1   
   155  146  156 1   
   156  147  148 1   
   157  147  157 1   
   158  147  158 1   
   159  148  159 1   
   160  148  160 1   
   161  148  161 1   
   162  162  163 1   
   163  162  171 1   
   164  163  164 1   
   165  163  166 1   
   166  163  172 1   
   167  164  165 2   
   168  164  177 1   
   169  166  167 1   
   170  166  173 1   
   171  166  174 1   
   172  167  168 1   
   173  167  175 1   
   174  167  176 1   
   175  168  169 1   
   176  168  170 1   
   177  177  178 1   
   178  177  182 1   
   179  178  179 1   
   180  178  180 1   
   181  178  181 1   
   182  184  185 1   
   183  184  186 1   
   184  187  188 1   
   185  187  189 1   
@<TRIPOS>SUBSTRUCTURE
     1 MOL         1 TEMP              0 ****  ****    0 ROOT
