@<TRIPOS>MOLECULE
MOL
  189   185     1     0     0
SMALL
resp


@<TRIPOS>ATOM
      1 C1         -0.3320    3.5710    4.8470 c3        1 MOL     -0.409618
      2 C2         -0.7940    3.0170    3.5220 c         1 MOL      0.677934
      3 O1         -0.0700    3.2020    2.5220 o         1 MOL     -0.577575
      4 H1          0.6120    4.0990    4.7100 hc        1 MOL      0.106105
      5 H2         -1.0810    4.2620    5.2330 hc        1 MOL      0.106105
      6 H3         -0.1910    2.7540    5.5540 hc        1 MOL      0.106105
      7 N1         -1.9490    2.3460    3.4030 n         1 MOL     -0.490575
      8 C3         -2.5360    1.9170    2.1440 c3        1 MOL      0.138895
      9 C4         -3.1090    3.0840    1.3170 c         1 MOL      0.294552
     10 O2         -4.2430    3.5250    1.4890 o         1 MOL     -0.499551
     11 C5         -3.7020    0.9150    2.5170 c3        1 MOL     -0.136035
     12 C6         -4.2710    0.1720    1.3110 c         1 MOL      0.765438
     13 O3         -3.6870    0.3320    0.1990 o         1 MOL     -0.716660
     14 O4         -5.3000   -0.5610    1.4510 o         1 MOL     -0.716660
     15 H4         -2.4470    2.1940    4.2680 hn        1 MOL      0.297276
     16 H5         -1.7850    1.5330    1.4610 h1        1 MOL      0.017440
     17 H6         -4.4410    1.5040    3.0600 hc        1 MOL      0.043627
     18 H7         -3.2550    0.2290    3.2440 hc        1 MOL      0.043627
     19 N2         -2.3050    3.6910    0.4570 n         1 MOL     -0.062858
     20 C7         -2.7530    4.8840   -0.3220 c3        1 MOL     -0.123337
     21 C8         -3.6280    4.6620   -1.4820 c         1 MOL      0.497234
     22 O5         -4.4210    5.5920   -1.7860 o         1 MOL     -0.564917
     23 C9         -1.5300    5.7530   -0.8520 c3        1 MOL     -0.102246
     24 C10        -0.6160    6.0690    0.4010 c3        1 MOL      0.197412
     25 C11        -1.3760    6.7430    1.5860 c3        1 MOL     -0.018821
     26 C12        -0.6410    7.8970    2.2640 c3        1 MOL     -0.087284
     27 N3          0.5220    7.3700    3.0110 n4        1 MOL     -0.341741
     28 H8         -1.3290    3.4470    0.4720 hn        1 MOL      0.262177
     29 H9         -3.3160    5.4990    0.3700 h1        1 MOL      0.081198
     30 H10        -1.9280    6.7030   -1.2140 hc        1 MOL      0.057491
     31 H11        -1.0480    5.3310   -1.7300 hc        1 MOL      0.057491
     32 H12         0.1400    6.7460    0.0150 hc        1 MOL     -0.054249
     33 H13        -0.2070    5.1400    0.8060 hc        1 MOL     -0.054249
     34 H14        -1.5210    5.9100    2.2690 hc        1 MOL      0.026478
     35 H15        -2.3350    7.2150    1.3510 hc        1 MOL      0.026478
     36 H16        -1.3060    8.4510    2.9230 hx        1 MOL      0.120665
     37 H17        -0.3550    8.5930    1.4840 hx        1 MOL      0.120665
     38 H18         0.2880    6.9350    3.8980 hn        1 MOL      0.321915
     39 H19         1.0920    6.7550    2.4540 hn        1 MOL      0.321915
     40 H20         0.9490    8.2090    3.3770 hn        1 MOL      0.321915
     41 N4         -3.6380    3.5030   -2.2130 n         1 MOL     -0.215033
     42 C13        -4.6860    3.2070   -3.2680 c3        1 MOL     -0.230242
     43 C14        -5.8790    2.4210   -2.7740 c         1 MOL      0.481126
     44 O6         -6.9230    2.4160   -3.4860 o         1 MOL     -0.517557
     45 C15        -4.1350    2.4430   -4.4450 c3        1 MOL     -0.151657
     46 C16        -3.1820    1.3540   -4.1700 c         1 MOL      0.752899
     47 O7         -3.1680    0.8100   -3.0080 o         1 MOL     -0.687281
     48 O8         -2.3870    0.9990   -5.0440 o         1 MOL     -0.687281
     49 H21        -2.9010    2.8470   -2.0440 hn        1 MOL      0.173589
     50 H22        -4.9540    4.1570   -3.7190 h1        1 MOL      0.165844
     51 H23        -3.6950    3.0940   -5.2120 hc        1 MOL      0.073612
     52 H24        -4.9150    1.9960   -5.0720 hc        1 MOL      0.073612
     53 N5         -5.8800    1.8070   -1.5340 n         1 MOL      0.018934
     54 C17        -7.0250    1.2370   -0.9420 c3        1 MOL     -0.332049
     55 C18        -7.2830   -0.1250   -1.5570 c         1 MOL      0.644231
     56 O9         -7.9990   -0.2560   -2.5410 o         1 MOL     -0.530652
     57 H25        -5.0530    1.8320   -0.9560 hn        1 MOL      0.123169
     58 H26        -7.8260    1.9450   -1.1350 h1        1 MOL      0.118795
     59 H27        -6.9130    1.1250    0.1310 h1        1 MOL      0.118795
     60 N6         -6.6780   -1.1990   -1.0720 n         1 MOL     -0.364638
     61 C19        -6.8620   -2.5920   -1.4130 c3        1 MOL     -0.025751
     62 C20        -6.8270   -3.5730   -0.1690 c         1 MOL      0.519622
     63 O10        -7.3310   -4.7010   -0.1900 o         1 MOL     -0.565257
     64 C21        -5.8220   -2.7940   -2.5530 c3        1 MOL     -0.167372
     65 C22        -4.3570   -2.4690   -2.2510 c         1 MOL      0.679593
     66 O11        -3.8480   -2.7220   -1.1460 o         1 MOL     -0.652367
     67 O12        -3.6270   -2.0830   -3.1770 o         1 MOL     -0.652367
     68 H28        -6.0050   -1.0150   -0.3440 hn        1 MOL      0.075262
     69 H29        -7.8450   -2.7210   -1.8470 h1        1 MOL      0.097253
     70 H30        -6.2140   -2.2460   -3.4010 hc        1 MOL      0.066554
     71 H31        -5.7960   -3.8590   -2.7910 hc        1 MOL      0.066554
     72 N7         -6.4040   -3.0820    0.9720 n         1 MOL     -0.330873
     73 C23        -6.3290   -3.8910    2.1990 c3        1 MOL     -0.064036
     74 C24        -4.8730   -4.2770    2.5790 c         1 MOL      0.489350
     75 O13        -4.6390   -5.1360    3.3680 o         1 MOL     -0.535952
     76 H32        -6.0900   -2.1330    1.0950 hn        1 MOL      0.350155
     77 H33        -6.9210   -4.8160    2.1860 h1        1 MOL      0.083970
     78 H34        -6.7180   -3.3050    3.0300 h1        1 MOL      0.083970
     79 N8         -3.8630   -3.8570    1.7250 n         1 MOL     -0.145003
     80 C25        -2.4020   -4.2350    1.7490 c3        1 MOL     -0.522538
     81 C26        -1.4310   -3.1330    1.6140 c         1 MOL      0.947391
     82 O14        -1.5110   -2.2690    0.7690 o         1 MOL     -0.690311
     83 C27        -1.9480   -5.3120    0.7750 c3        1 MOL      0.490709
     84 C28        -2.5690   -6.6930    1.2280 c3        1 MOL     -0.674094
     85 O15        -2.3610   -5.0370   -0.5630 oh        1 MOL     -0.655919
     86 H35        -4.1490   -3.2220    0.9890 hn        1 MOL      0.115975
     87 H36        -2.1840   -4.6110    2.7500 h1        1 MOL      0.162013
     88 H37        -0.8630   -5.3150    0.6960 h1        1 MOL      0.051782
     89 H38        -3.1720   -4.5220   -0.6220 ho        1 MOL      0.447255
     90 H39        -3.6450   -6.7440    1.0320 hc        1 MOL      0.187264
     91 H40        -2.0150   -7.4600    0.7010 hc        1 MOL      0.187264
     92 H41        -2.4720   -6.8230    2.3080 hc        1 MOL      0.187264
     93 N9         -0.3840   -3.1870    2.4730 n         1 MOL     -0.792584
     94 C29         0.6670   -2.2090    2.3710 c3        1 MOL      0.020383
     95 C30         1.8580   -2.8160    1.6390 c         1 MOL      0.624388
     96 O16         2.2340   -3.9390    1.8880 o         1 MOL     -0.613214
     97 C31         1.0960   -1.7740    3.7650 c3        1 MOL      0.193194
     98 C32         0.0310   -1.5070    4.7980 c3        1 MOL      0.096007
     99 C33         1.9260   -0.4530    3.5680 c3        1 MOL     -0.447615
    100 C34         0.4610   -1.3550    6.2850 c3        1 MOL     -0.067267
    101 H42        -0.4140   -3.7890    3.2810 hn        1 MOL      0.365986
    102 H43         0.3490   -1.3330    1.8010 h1        1 MOL      0.151300
    103 H44         1.8460   -2.4230    4.2180 hc        1 MOL      0.005749
    104 H45        -0.5210   -2.4430    4.7430 hc        1 MOL     -0.029262
    105 H46        -0.6120   -0.6730    4.5620 hc        1 MOL     -0.029262
    106 H47         2.7230   -0.5820    2.8270 hc        1 MOL      0.078628
    107 H48         1.3090    0.4050    3.3080 hc        1 MOL      0.078628
    108 H49         2.5380   -0.2470    4.4550 hc        1 MOL      0.078628
    109 H50         1.0490   -0.4500    6.4690 hc        1 MOL      0.011685
    110 H51        -0.3950   -1.4490    6.9430 hc        1 MOL      0.011685
    111 H52         1.1720   -2.1560    6.4920 hc        1 MOL      0.011685
    112 N10         2.4770   -2.0630    0.7190 n         1 MOL     -0.116302
    113 C35         3.6990   -2.4770    0.0500 c3        1 MOL      0.026724
    114 C36         4.9760   -1.9330    0.7100 c         1 MOL      0.214980
    115 O17         4.8980   -1.0030    1.4900 o         1 MOL     -0.301170
    116 C37         3.5720   -2.0400   -1.3670 c3        1 MOL      0.120514
    117 C38         2.3520   -2.5150   -2.1520 c3        1 MOL     -0.403432
    118 O18         3.6780   -0.6480   -1.5230 oh        1 MOL     -0.267724
    119 H53         2.0680   -1.1470    0.5420 hn        1 MOL      0.088465
    120 H54         3.7890   -3.5610    0.0320 h1        1 MOL      0.085007
    121 H55         4.4590   -2.3950   -1.8880 h1        1 MOL     -0.013194
    122 H56         3.5220   -0.4500   -2.4490 ho        1 MOL      0.356458
    123 H57         2.4830   -2.4630   -3.2310 hc        1 MOL      0.114475
    124 H58         2.0350   -3.4590   -1.7170 hc        1 MOL      0.114475
    125 H59         1.5900   -1.7420   -2.0830 hc        1 MOL      0.114475
    126 N11         6.1230   -2.3960    0.2920 n         1 MOL     -0.076548
    127 C39         7.3600   -1.8000    0.7240 c3        1 MOL     -0.361497
    128 C40         7.4920   -0.3510    0.2460 c         1 MOL      0.382261
    129 O19         8.0860    0.5170    0.8990 o         1 MOL     -0.464356
    130 C41         8.5290   -2.6400    0.1400 c3        1 MOL      0.415579
    131 C42         8.4870   -4.0240    0.7740 c3        1 MOL     -0.498445
    132 O20         8.3770   -2.8680   -1.1660 oh        1 MOL     -0.535441
    133 H60         6.1300   -3.2800   -0.1840 hn        1 MOL      0.225804
    134 H61         7.3920   -1.9030    1.8070 h1        1 MOL      0.197437
    135 H62         9.4620   -2.1270    0.3580 h1        1 MOL      0.024609
    136 H63         9.2490   -2.6680   -1.5340 ho        1 MOL      0.310112
    137 H64         9.3920   -4.5850    0.5180 hc        1 MOL      0.135922
    138 H65         8.3680   -3.9070    1.8520 hc        1 MOL      0.135922
    139 H66         7.6630   -4.5880    0.3530 hc        1 MOL      0.135922
    140 N12         7.0090   -0.0630   -0.9820 n         1 MOL     -0.188696
    141 C43         6.9420    1.2550   -1.5260 c3        1 MOL     -0.046910
    142 C44         5.9850    2.1330   -0.7750 c         1 MOL      0.326751
    143 O21         6.3520    3.3100   -0.5330 o         1 MOL     -0.515419
    144 C45         6.4550    1.1270   -2.9530 c3        1 MOL     -0.124520
    145 C46         7.0720    0.0180   -3.9140 c3        1 MOL     -0.148310
    146 C47         8.5720    0.1900   -4.1810 c3        1 MOL     -0.044343
    147 C48         9.1810   -1.0490   -4.8760 c3        1 MOL     -0.001643
    148 N13        10.6400   -1.0500   -4.7120 n4        1 MOL     -0.300636
    149 H67         6.5300   -0.8260   -1.4440 hn        1 MOL      0.131903
    150 H68         7.9300    1.7350   -1.5020 h1        1 MOL      0.123792
    151 H69         6.5930    2.0980   -3.4280 hc        1 MOL      0.092105
    152 H70         5.3710    0.9950   -3.0460 hc        1 MOL      0.092105
    153 H71         6.4800    0.0630   -4.8260 hc        1 MOL      0.060842
    154 H72         6.9540   -0.9740   -3.4720 hc        1 MOL      0.060842
    155 H73         9.0640    0.5170   -3.2650 hc        1 MOL      0.058576
    156 H74         8.6860    1.0420   -4.8520 hc        1 MOL      0.058576
    157 H75         8.8610   -1.0380   -5.9190 hx        1 MOL      0.100495
    158 H76         8.6810   -1.9520   -4.5290 hx        1 MOL      0.100495
    159 H77        11.0720   -0.2710   -5.1850 hn        1 MOL      0.260529
    160 H78        10.8750   -1.0570   -3.7290 hn        1 MOL      0.260529
    161 H79        11.0300   -1.8890   -5.1140 hn        1 MOL      0.260529
    162 N14         4.8480    1.6670   -0.1990 n         1 MOL      0.108878
    163 C49         3.9410    2.3500    0.7410 c3        1 MOL     -0.253707
    164 C50         4.5470    2.6210    2.1180 c         1 MOL      0.549569
    165 O22         4.3190    3.6450    2.7520 o         1 MOL     -0.586745
    166 C51         2.5700    1.6000    0.8120 c3        1 MOL      0.183563
    167 C52         1.7730    1.9430   -0.4370 c3        1 MOL      0.086044
    168 C53         0.4510    1.0600   -0.6580 c         1 MOL      0.613257
    169 O23        -0.6800    1.5590   -1.0190 o         1 MOL     -0.731029
    170 O24         0.5780   -0.1660   -0.3320 o         1 MOL     -0.731029
    171 H80         4.6060    0.7180   -0.4380 hn        1 MOL     -0.177829
    172 H81         3.7890    3.3370    0.2990 h1        1 MOL      0.079894
    173 H82         2.1220    1.8400    1.7830 hc        1 MOL      0.009956
    174 H83         2.7940    0.5360    0.8340 hc        1 MOL      0.009956
    175 H84         2.3920    1.7760   -1.3200 hc        1 MOL     -0.062758
    176 H85         1.4380    2.9750   -0.3960 hc        1 MOL     -0.062758
    177 N15         5.2190    1.6030    2.6620 n         1 MOL     -0.121013
    178 C54         6.0170    1.7240    3.8560 c3        1 MOL     -0.234362
    179 H86         6.5980    2.6450    3.8120 h1        1 MOL      0.089793
    180 H87         5.3650    1.7470    4.7290 h1        1 MOL      0.089793
    181 H88         6.6930    0.8720    3.9300 h1        1 MOL      0.089793
    182 H89         5.2660    0.7400    2.1470 hn        1 MOL      0.165746
    183 Ca1        -1.8990   -0.7520   -1.3640 Ca        1 MOL      1.807092
    184 O25        -0.7250   -3.2370   -1.8420 oh        1 MOL     -0.883585
    185 H90        -1.1590   -3.9680   -1.4150 ho        1 MOL      0.407090
    186 H91        -0.4430   -3.5830   -2.6900 ho        1 MOL      0.407090
    187 O26        -0.8150   -0.9230   -3.8230 oh        1 MOL     -0.883585
    188 H92        -1.3520   -0.4090   -4.4250 ho        1 MOL      0.407090
    189 H93        -0.2170   -1.4060   -4.3840 ho        1 MOL      0.407090
@<TRIPOS>BOND
     1    1    2 1   
     2    1    4 1   
     3    1    5 1   
     4    1    6 1   
     5    2    3 2   
     6    2    7 1   
     7    7    8 1   
     8    7   15 1   
     9    8    9 1   
    10    8   11 1   
    11    8   16 1   
    12    9   10 2   
    13    9   19 1   
    14   11   12 1   
    15   11   17 1   
    16   11   18 1   
    17   12   13 1   
    18   12   14 1   
    19   19   20 1   
    20   19   28 1   
    21   20   21 1   
    22   20   23 1   
    23   20   29 1   
    24   21   22 2   
    25   21   41 1   
    26   23   24 1   
    27   23   30 1   
    28   23   31 1   
    29   24   25 1   
    30   24   32 1   
    31   24   33 1   
    32   25   26 1   
    33   25   34 1   
    34   25   35 1   
    35   26   27 1   
    36   26   36 1   
    37   26   37 1   
    38   27   38 1   
    39   27   39 1   
    40   27   40 1   
    41   41   42 1   
    42   41   49 1   
    43   42   43 1   
    44   42   45 1   
    45   42   50 1   
    46   43   44 2   
    47   43   53 1   
    48   45   46 1   
    49   45   51 1   
    50   45   52 1   
    51   46   47 1   
    52   46   48 1   
    53   53   54 1   
    54   53   57 1   
    55   54   55 1   
    56   54   58 1   
    57   54   59 1   
    58   55   56 2   
    59   55   60 1   
    60   60   61 1   
    61   60   68 1   
    62   61   62 1   
    63   61   64 1   
    64   61   69 1   
    65   62   63 2   
    66   62   72 1   
    67   64   65 1   
    68   64   70 1   
    69   64   71 1   
    70   65   66 1   
    71   65   67 1   
    72   72   73 1   
    73   72   76 1   
    74   73   74 1   
    75   73   77 1   
    76   73   78 1   
    77   74   75 2   
    78   74   79 1   
    79   79   80 1   
    80   79   86 1   
    81   80   81 1   
    82   80   83 1   
    83   80   87 1   
    84   81   82 2   
    85   81   93 1   
    86   83   84 1   
    87   83   85 1   
    88   83   88 1   
    89   84   90 1   
    90   84   91 1   
    91   84   92 1   
    92   85   89 1   
    93   93   94 1   
    94   93  101 1   
    95   94   95 1   
    96   94   97 1   
    97   94  102 1   
    98   95   96 2   
    99   95  112 1   
   100   97   98 1   
   101   97   99 1   
   102   97  103 1   
   103   98  100 1   
   104   98  104 1   
   105   98  105 1   
   106   99  106 1   
   107   99  107 1   
   108   99  108 1   
   109  100  109 1   
   110  100  110 1   
   111  100  111 1   
   112  112  113 1   
   113  112  119 1   
   114  113  114 1   
   115  113  116 1   
   116  113  120 1   
   117  114  115 2   
   118  114  126 1   
   119  116  117 1   
   120  116  118 1   
   121  116  121 1   
   122  117  123 1   
   123  117  124 1   
   124  117  125 1   
   125  118  122 1   
   126  126  127 1   
   127  126  133 1   
   128  127  128 1   
   129  127  130 1   
   130  127  134 1   
   131  128  129 2   
   132  128  140 1   
   133  130  131 1   
   134  130  132 1   
   135  130  135 1   
   136  131  137 1   
   137  131  138 1   
   138  131  139 1   
   139  132  136 1   
   140  140  141 1   
   141  140  149 1   
   142  141  142 1   
   143  141  144 1   
   144  141  150 1   
   145  142  143 2   
   146  142  162 1   
   147  144  145 1   
   148  144  151 1   
   149  144  152 1   
   150  145  146 1   
   151  145  153 1   
   152  145  154 1   
   153  146  147 1   
   154  146  155 1   
   155  146  156 1   
   156  147  148 1   
   157  147  157 1   
   158  147  158 1   
   159  148  159 1   
   160  148  160 1   
   161  148  161 1   
   162  162  163 1   
   163  162  171 1   
   164  163  164 1   
   165  163  166 1   
   166  163  172 1   
   167  164  165 2   
   168  164  177 1   
   169  166  167 1   
   170  166  173 1   
   171  166  174 1   
   172  167  168 1   
   173  167  175 1   
   174  167  176 1   
   175  168  169 1   
   176  168  170 1   
   177  177  178 1   
   178  177  182 1   
   179  178  179 1   
   180  178  180 1   
   181  178  181 1   
   182  184  185 1   
   183  184  186 1   
   184  187  188 1   
   185  187  189 1   
@<TRIPOS>SUBSTRUCTURE
     1 MOL         1 TEMP              0 ****  ****    0 ROOT
