@<TRIPOS>MOLECULE
MOL
  175   173     1     0     0
SMALL
resp


@<TRIPOS>ATOM
      1 C1          0.9330    3.6110    5.5290 c3        1 MOL     -0.404027
      2 C2          0.2310    3.7140    4.1770 c         1 MOL      0.687513
      3 O1          0.8440    4.0180    3.1900 o         1 MOL     -0.539693
      4 H1          1.5150    2.6900    5.5660 hc        1 MOL      0.099971
      5 H2          1.5970    4.4650    5.6610 hc        1 MOL      0.099971
      6 H3          0.1890    3.6020    6.3250 hc        1 MOL      0.099971
      7 N1         -1.0530    3.3940    4.0760 n         1 MOL     -0.567053
      8 C3         -1.7280    3.2410    2.8270 c3        1 MOL      0.065688
      9 C4         -1.6970    4.4860    1.8620 c         1 MOL      0.705381
     10 O2         -1.6900    5.6370    2.2850 o         1 MOL     -0.610006
     11 C5         -3.2280    2.9720    3.1100 c3        1 MOL     -0.410426
     12 C6         -3.9550    2.6080    1.8340 c         1 MOL      0.762128
     13 O3         -3.4700    2.1380    0.7600 o         1 MOL     -0.652998
     14 O4         -5.1560    2.8860    1.8180 o         1 MOL     -0.652998
     15 H4         -1.5550    3.1370    4.9180 hn        1 MOL      0.316555
     16 H5         -1.3500    2.4170    2.2200 h1        1 MOL      0.107866
     17 H6         -3.6540    3.8300    3.6320 hc        1 MOL      0.094340
     18 H7         -3.3120    2.1260    3.7910 hc        1 MOL      0.094340
     19 N2         -1.8820    4.3710    0.5370 n         1 MOL     -0.507420
     20 C7         -1.9310    5.4280   -0.4920 c3        1 MOL      0.261320
     21 C8         -2.9550    5.1280   -1.5950 c         1 MOL      0.453238
     22 O5         -3.3090    6.1180   -2.3010 o         1 MOL     -0.591359
     23 C9         -0.6080    5.6320   -1.1050 c3        1 MOL     -0.289484
     24 H8         -1.8910    3.4310    0.1630 hn        1 MOL      0.304801
     25 H9         -2.3510    6.3860   -0.1780 h1        1 MOL      0.024649
     26 H10        -0.6630    6.4160   -1.8580 hc        1 MOL      0.070020
     27 H11         0.1720    5.8280   -0.3640 hc        1 MOL      0.070020
     28 H12        -0.2810    4.7190   -1.6080 hc        1 MOL      0.070020
     29 N3         -3.4900    3.9140   -1.7550 n         1 MOL     -0.248580
     30 C10        -4.4790    3.5880   -2.7790 c3        1 MOL      0.089236
     31 C11        -5.6730    2.8380   -2.2860 c         1 MOL      0.352891
     32 O6         -6.5760    2.6740   -3.1570 o         1 MOL     -0.582645
     33 C12        -3.9030    2.8400   -3.9300 c3        1 MOL     -0.061352
     34 C13        -3.2680    1.4960   -3.4900 c         1 MOL      0.623226
     35 O7         -3.4450    0.9640   -2.3620 o         1 MOL     -0.678623
     36 O8         -2.5220    0.9520   -4.3210 o         1 MOL     -0.678623
     37 H13        -3.2320    3.2880   -1.0080 hn        1 MOL      0.089190
     38 H14        -4.8690    4.5190   -3.1930 h1        1 MOL      0.064123
     39 H15        -3.2130    3.4700   -4.4800 hc        1 MOL      0.026509
     40 H16        -4.6620    2.6050   -4.6730 hc        1 MOL      0.026509
     41 N4         -5.7730    2.2630   -1.0830 n         1 MOL     -0.098075
     42 C14        -6.9290    1.6210   -0.4270 c3        1 MOL     -0.232760
     43 C15        -7.1800    0.1520   -0.8180 c         1 MOL      0.499831
     44 O9         -8.1420   -0.4370   -0.3890 o         1 MOL     -0.605672
     45 H17        -5.0100    2.4020   -0.4340 hn        1 MOL      0.118996
     46 H18        -7.7700    2.2310   -0.7840 h1        1 MOL      0.123064
     47 H19        -6.9580    1.8530    0.6370 h1        1 MOL      0.123064
     48 N5         -6.3180   -0.4260   -1.6600 n         1 MOL     -0.258013
     49 C16        -6.3780   -1.8060   -2.1610 c3        1 MOL      0.063668
     50 C17        -6.2930   -2.9130   -1.1500 c         1 MOL      0.398322
     51 O10        -6.1630   -4.0870   -1.4630 o         1 MOL     -0.466400
     52 C18        -5.3000   -1.9630   -3.2200 c3        1 MOL     -0.292879
     53 C19        -3.9020   -1.9730   -2.6200 c         1 MOL      0.788822
     54 N6         -2.9370   -2.1880   -3.4650 n         1 MOL     -0.667721
     55 O11        -3.6570   -1.9050   -1.4340 o         1 MOL     -0.714609
     56 H20        -5.6370    0.2460   -2.0040 hn        1 MOL      0.215752
     57 H21        -7.3290   -1.8500   -2.6910 h1        1 MOL      0.091248
     58 H22        -5.5180   -1.1530   -3.9190 hc        1 MOL      0.084054
     59 H23        -5.4130   -2.8990   -3.7820 hc        1 MOL      0.084054
     60 H24        -3.1590   -2.3150   -4.4510 hn        1 MOL      0.334998
     61 H25        -2.0090   -1.9720   -3.1340 hn        1 MOL      0.334998
     62 N7         -6.4670   -2.5920    0.1820 n         1 MOL     -0.305069
     63 C20        -6.5280   -3.6430    1.2350 c3        1 MOL     -0.174583
     64 C21        -5.2850   -4.3890    1.6860 c         1 MOL      0.476119
     65 O12        -5.2300   -5.3330    2.4580 o         1 MOL     -0.579452
     66 H26        -6.5070   -1.6400    0.5190 hn        1 MOL      0.306344
     67 H27        -7.1950   -4.4130    0.8610 h1        1 MOL      0.105006
     68 H28        -7.0540   -3.2770    2.1140 h1        1 MOL      0.105006
     69 N8         -4.1500   -3.8960    1.1990 n         1 MOL     -0.119981
     70 C22        -2.7750   -4.5090    1.4570 c3        1 MOL     -0.304765
     71 C23        -1.6810   -3.4020    1.4940 c         1 MOL      0.549286
     72 O13        -1.7630   -2.4180    0.7370 o         1 MOL     -0.418214
     73 C24        -2.4780   -5.5420    0.3820 c3        1 MOL      0.480892
     74 C25        -3.3670   -6.7540    0.4860 c3        1 MOL     -0.394502
     75 O14        -2.6870   -4.8800   -0.8240 oh        1 MOL     -0.564750
     76 H29        -4.2430   -3.1430    0.5350 hn        1 MOL      0.136073
     77 H30        -2.7150   -4.9510    2.4540 h1        1 MOL      0.123276
     78 H31        -1.4490   -5.9010    0.3550 h1        1 MOL     -0.022845
     79 H32        -2.1490   -4.0860   -0.8190 ho        1 MOL      0.362230
     80 H33        -4.3990   -6.4840    0.3310 hc        1 MOL      0.103205
     81 H34        -3.0700   -7.5350   -0.2050 hc        1 MOL      0.103205
     82 H35        -3.2020   -7.2530    1.4480 hc        1 MOL      0.103205
     83 N9         -0.6210   -3.5270    2.3170 n         1 MOL     -0.578738
     84 C26         0.5200   -2.6490    2.1550 c3        1 MOL     -0.036999
     85 C27         1.1190   -2.9240    0.7730 c         1 MOL      0.502997
     86 O15         1.2670   -4.0420    0.3530 o         1 MOL     -0.527767
     87 C28         1.4410   -2.8860    3.3810 c3        1 MOL      0.177969
     88 C29         0.7580   -2.3590    4.7300 c3        1 MOL      0.130225
     89 C30         2.7990   -2.1060    3.2640 c3        1 MOL     -0.479118
     90 C31         1.4990   -2.6830    6.0170 c3        1 MOL     -0.044721
     91 H36        -0.5510   -4.3970    2.8260 hn        1 MOL      0.320828
     92 H37         0.2390   -1.5940    2.1680 h1        1 MOL     -0.036875
     93 H38         1.6080   -3.9500    3.5070 hc        1 MOL      0.001175
     94 H39        -0.1970   -2.8450    4.9040 hc        1 MOL     -0.026863
     95 H40         0.6730   -1.2790    4.7420 hc        1 MOL     -0.026863
     96 H41         3.4840   -2.5290    3.9960 hc        1 MOL      0.103712
     97 H42         3.2560   -2.1990    2.2860 hc        1 MOL      0.103712
     98 H43         2.6930   -1.0920    3.6510 hc        1 MOL      0.103712
     99 H44         1.7470   -3.7480    5.9530 hc        1 MOL     -0.001251
    100 H45         2.4820   -2.2070    6.0310 hc        1 MOL     -0.001251
    101 H46         0.8850   -2.5540    6.9130 hc        1 MOL     -0.001251
    102 N10         1.5860   -1.8160    0.0750 n         1 MOL     -0.330547
    103 C32         2.5060   -1.9230   -1.1690 c3        1 MOL      0.037879
    104 C33         3.9290   -1.3560   -0.9200 c         1 MOL      0.418541
    105 O16         4.2030   -0.6880    0.0530 o         1 MOL     -0.273223
    106 C34         1.8340   -1.2370   -2.3100 c3        1 MOL     -0.374552
    107 C35         0.3850   -1.6610   -2.5410 c         1 MOL      0.793644
    108 O17        -0.5720   -1.0810   -1.9680 o         1 MOL     -0.698493
    109 O18         0.2250   -2.6250   -3.3860 o         1 MOL     -0.698493
    110 H47         1.3500   -0.9200    0.4860 hn        1 MOL      0.487331
    111 H48         2.6970   -2.9760   -1.3870 h1        1 MOL      0.081672
    112 H49         2.5420   -1.2870   -3.1400 hc        1 MOL      0.082690
    113 H50         1.7980   -0.1550   -2.1870 hc        1 MOL      0.082690
    114 N11         4.8590   -1.5790   -1.8690 n         1 MOL     -0.677610
    115 C36         6.3020   -1.4090   -1.5100 c3        1 MOL      0.359758
    116 C37         6.8210   -0.0320   -1.1310 c         1 MOL      0.307393
    117 O19         7.4180    0.0260   -0.0630 o         1 MOL     -0.496214
    118 C38         7.0780   -2.0670   -2.6990 c3        1 MOL     -0.328729
    119 C39         8.5840   -2.1700   -2.2280 ca        1 MOL      0.130354
    120 C40         8.9920   -2.7090   -0.9880 ca        1 MOL     -0.205981
    121 C41         9.5520   -1.6440   -3.1450 ca        1 MOL     -0.205981
    122 C42        10.3640   -2.8740   -0.7240 ca        1 MOL      0.012091
    123 C43        10.8780   -1.7660   -2.8360 ca        1 MOL      0.012091
    124 C44        11.3280   -2.4810   -1.7040 ca        1 MOL     -0.281984
    125 H51         4.7240   -2.2050   -2.6450 hn        1 MOL      0.366250
    126 H52         6.4540   -2.0340   -0.6300 h1        1 MOL      0.078212
    127 H53         6.8290   -1.5140   -3.6010 hc        1 MOL      0.100559
    128 H54         6.6500   -3.0520   -2.8820 hc        1 MOL      0.100559
    129 H55         8.1900   -3.1520   -0.4120 ha        1 MOL      0.115310
    130 H56         9.3560   -1.1220   -4.0760 ha        1 MOL      0.115310
    131 H57        10.6580   -3.4510    0.1300 ha        1 MOL      0.083081
    132 H58        11.5700   -1.4200   -3.5890 ha        1 MOL      0.083081
    133 H59        12.3690   -2.6710   -1.5010 ha        1 MOL      0.143752
    134 N12         6.3950    1.0960   -1.6980 n         1 MOL      0.024193
    135 C45         6.7270    2.4070   -1.1250 c3        1 MOL     -0.074557
    136 C46         5.9000    2.8190    0.1420 c         1 MOL      0.442647
    137 O20         6.4450    3.5650    0.9600 o         1 MOL     -0.514108
    138 C47         6.5340    3.4260   -2.2610 c3        1 MOL     -0.104798
    139 C48         6.4590    2.6120   -3.5030 c3        1 MOL      0.076451
    140 C49         5.9010    1.2200   -3.0230 c3        1 MOL     -0.137387
    141 H60         7.7860    2.2950   -0.8790 h1        1 MOL      0.089310
    142 H61         5.6320    4.0290   -2.1590 hc        1 MOL      0.052976
    143 H62         7.3750    4.1240   -2.3150 hc        1 MOL      0.052976
    144 H63         5.9750    3.0600   -4.3720 hc        1 MOL      0.001451
    145 H64         7.4370    2.3820   -3.9190 hc        1 MOL      0.001451
    146 H65         4.8200    1.3300   -3.0710 h1        1 MOL      0.063706
    147 H66         6.1430    0.3960   -3.6930 h1        1 MOL      0.063706
    148 N13         4.7430    2.1460    0.3950 n         1 MOL     -0.247319
    149 C50         3.9670    2.1440    1.7170 c3        1 MOL     -0.292861
    150 C51         4.7520    1.4040    2.8420 c         1 MOL      0.575542
    151 O21         4.7630    1.7540    4.0000 o         1 MOL     -0.573384
    152 C52         2.5930    1.5530    1.5520 c3        1 MOL      0.087256
    153 C53         1.7830    2.0040    0.3370 c3        1 MOL     -0.329357
    154 C54         0.3110    1.5360    0.3010 c         1 MOL      0.529764
    155 O22        -0.0700    0.6010    0.9520 o         1 MOL     -0.673797
    156 O23        -0.5230    2.0740   -0.4660 o         1 MOL     -0.673797
    157 H67         4.4050    1.4700   -0.2720 hn        1 MOL      0.198154
    158 H68         3.8090    3.2190    1.8620 h1        1 MOL      0.178268
    159 H69         1.9880    1.7330    2.4450 hc        1 MOL      0.030186
    160 H70         2.6750    0.4670    1.5090 hc        1 MOL      0.030186
    161 H71         2.2070    1.6510   -0.6000 hc        1 MOL      0.113071
    162 H72         1.8900    3.0920    0.3640 hc        1 MOL      0.113071
    163 N14         5.3870    0.2910    2.4640 n         1 MOL      0.025496
    164 C55         6.2820   -0.4710    3.3900 c3        1 MOL     -0.360764
    165 H73         6.4670   -1.4640    2.9810 h1        1 MOL      0.118615
    166 H74         7.2280    0.0590    3.4990 h1        1 MOL      0.118615
    167 H75         5.8030   -0.5640    4.3650 h1        1 MOL      0.118615
    168 H76         5.3700    0.0200    1.4930 hn        1 MOL     -0.005790
    169 Ca1        -2.2970    0.1110   -0.2370 Ca        1 MOL      1.658856
    170 O24        -2.0280   -0.2040    2.6150 oh        1 MOL     -0.845922
    171 H77        -2.0290    0.1060    3.5200 ho        1 MOL      0.408376
    172 H78        -1.1110   -0.2300    2.3650 ho        1 MOL      0.408376
    173 O25        -4.3540   -0.6780    1.3810 oh        1 MOL     -0.845922
    174 H79        -3.6330   -0.7800    2.0050 ho        1 MOL      0.408376
    175 H80        -5.1280   -0.5440    1.9360 ho        1 MOL      0.408376
@<TRIPOS>BOND
     1    1    2 1   
     2    1    4 1   
     3    1    5 1   
     4    1    6 1   
     5    2    3 2   
     6    2    7 1   
     7    7    8 1   
     8    7   15 1   
     9    8    9 1   
    10    8   11 1   
    11    8   16 1   
    12    9   10 2   
    13    9   19 1   
    14   11   12 1   
    15   11   17 1   
    16   11   18 1   
    17   12   13 1   
    18   12   14 1   
    19   19   20 1   
    20   19   24 1   
    21   20   21 1   
    22   20   23 1   
    23   20   25 1   
    24   21   22 2   
    25   21   29 1   
    26   23   26 1   
    27   23   27 1   
    28   23   28 1   
    29   29   30 1   
    30   29   37 1   
    31   30   31 1   
    32   30   33 1   
    33   30   38 1   
    34   31   32 2   
    35   31   41 1   
    36   33   34 1   
    37   33   39 1   
    38   33   40 1   
    39   34   35 1   
    40   34   36 1   
    41   41   42 1   
    42   41   45 1   
    43   42   43 1   
    44   42   46 1   
    45   42   47 1   
    46   43   44 2   
    47   43   48 1   
    48   48   49 1   
    49   48   56 1   
    50   49   50 1   
    51   49   52 1   
    52   49   57 1   
    53   50   51 2   
    54   50   62 1   
    55   52   53 1   
    56   52   58 1   
    57   52   59 1   
    58   53   54 1   
    59   53   55 2   
    60   54   60 1   
    61   54   61 1   
    62   62   63 1   
    63   62   66 1   
    64   63   64 1   
    65   63   67 1   
    66   63   68 1   
    67   64   65 2   
    68   64   69 1   
    69   69   70 1   
    70   69   76 1   
    71   70   71 1   
    72   70   73 1   
    73   70   77 1   
    74   71   72 2   
    75   71   83 1   
    76   73   74 1   
    77   73   75 1   
    78   73   78 1   
    79   74   80 1   
    80   74   81 1   
    81   74   82 1   
    82   75   79 1   
    83   83   84 1   
    84   83   91 1   
    85   84   85 1   
    86   84   87 1   
    87   84   92 1   
    88   85   86 2   
    89   85  102 1   
    90   87   88 1   
    91   87   89 1   
    92   87   93 1   
    93   88   90 1   
    94   88   94 1   
    95   88   95 1   
    96   89   96 1   
    97   89   97 1   
    98   89   98 1   
    99   90   99 1   
   100   90  100 1   
   101   90  101 1   
   102  102  103 1   
   103  102  110 1   
   104  103  104 1   
   105  103  106 1   
   106  103  111 1   
   107  104  105 2   
   108  104  114 1   
   109  106  107 1   
   110  106  112 1   
   111  106  113 1   
   112  107  108 1   
   113  107  109 1   
   114  114  115 1   
   115  114  125 1   
   116  115  116 1   
   117  115  118 1   
   118  115  126 1   
   119  116  117 2   
   120  116  134 1   
   121  118  119 1   
   122  118  127 1   
   123  118  128 1   
   124  119  120 ar  
   125  119  121 ar  
   126  120  122 ar  
   127  120  129 1   
   128  121  123 ar  
   129  121  130 1   
   130  122  124 ar  
   131  122  131 1   
   132  123  124 ar  
   133  123  132 1   
   134  124  133 1   
   135  134  135 1   
   136  134  140 1   
   137  135  136 1   
   138  135  138 1   
   139  135  141 1   
   140  136  137 2   
   141  136  148 1   
   142  138  139 1   
   143  138  142 1   
   144  138  143 1   
   145  139  140 1   
   146  139  144 1   
   147  139  145 1   
   148  140  146 1   
   149  140  147 1   
   150  148  149 1   
   151  148  157 1   
   152  149  150 1   
   153  149  152 1   
   154  149  158 1   
   155  150  151 2   
   156  150  163 1   
   157  152  153 1   
   158  152  159 1   
   159  152  160 1   
   160  153  154 1   
   161  153  161 1   
   162  153  162 1   
   163  154  155 1   
   164  154  156 1   
   165  163  164 1   
   166  163  168 1   
   167  164  165 1   
   168  164  166 1   
   169  164  167 1   
   170  170  171 1   
   171  170  172 1   
   172  173  174 1   
   173  173  175 1   
@<TRIPOS>SUBSTRUCTURE
     1 MOL         1 TEMP              0 ****  ****    0 ROOT
