@<TRIPOS>MOLECULE
MOL
  179   176     1     0     0
SMALL
resp


@<TRIPOS>ATOM
      1 C1          2.2000    2.0120    5.3750 c3        1 MOL     -0.248460
      2 C2          1.4190    1.9090    4.0420 c         1 MOL      0.634473
      3 O1          1.9870    1.8380    2.9310 o         1 MOL     -0.561399
      4 H1          3.1660    1.5170    5.2690 hc        1 MOL      0.067966
      5 H2          2.3560    3.0610    5.6260 hc        1 MOL      0.067966
      6 H3          1.6300    1.5290    6.1690 hc        1 MOL      0.067966
      7 N1          0.1030    1.7360    4.1540 n         1 MOL     -0.510717
      8 C3         -0.7860    1.5800    2.9840 c3        1 MOL     -0.002244
      9 C4         -1.0990    2.9360    2.2280 c         1 MOL      0.467910
     10 O2         -1.9960    3.7100    2.6370 o         1 MOL     -0.535598
     11 C5         -2.0770    0.9430    3.3980 c3        1 MOL      0.072353
     12 C6         -2.9660    0.6920    2.1540 c         1 MOL      0.654648
     13 O3         -4.1470    0.2850    2.3430 o         1 MOL     -0.772737
     14 O4         -2.5440    0.8240    1.0270 o         1 MOL     -0.772737
     15 H4         -0.3690    1.8520    5.0370 hn        1 MOL      0.311969
     16 H5         -0.3240    0.9740    2.2070 h1        1 MOL      0.064217
     17 H6         -2.5180    1.5940    4.1430 hc        1 MOL      0.004446
     18 H7         -1.9020    0.0620    4.0280 hc        1 MOL      0.004446
     19 N2         -0.3120    3.2150    1.1950 n         1 MOL     -0.221337
     20 C7         -0.1060    4.6110    0.6580 c3        1 MOL     -0.206125
     21 C8         -1.2570    5.1720   -0.2840 c         1 MOL      0.498469
     22 O5         -1.3190    6.4160   -0.5340 o         1 MOL     -0.570327
     23 C9          1.2370    4.7140   -0.1000 c3        1 MOL      0.062701
     24 C10         1.7000    6.0570   -0.6430 c3        1 MOL     -0.058663
     25 C11         3.2450    5.9500   -0.8810 c3        1 MOL     -0.074383
     26 C12         3.7000    7.0620   -1.7570 c3        1 MOL      0.158640
     27 N3          5.1680    7.2500   -1.6050 n4        1 MOL     -0.491703
     28 H8          0.2670    2.5190    0.7350 hn        1 MOL      0.271083
     29 H9         -0.0640    5.2240    1.5570 h1        1 MOL      0.135747
     30 H10         1.1410    4.0770   -0.9810 hc        1 MOL      0.017349
     31 H11         2.0260    4.1910    0.4290 hc        1 MOL      0.017349
     32 H12         1.5150    6.7950    0.1460 hc        1 MOL      0.041720
     33 H13         1.1540    6.3470   -1.5390 hc        1 MOL      0.041720
     34 H14         3.4130    4.9190   -1.2370 hc        1 MOL      0.049084
     35 H15         3.7760    6.1030    0.0590 hc        1 MOL      0.049084
     36 H16         3.1450    7.9440   -1.4410 hx        1 MOL      0.056244
     37 H17         3.4300    6.9160   -2.8030 hx        1 MOL      0.056244
     38 H18         5.5210    8.0220   -2.1610 hn        1 MOL      0.358997
     39 H19         5.3470    7.3770   -0.6180 hn        1 MOL      0.358997
     40 H20         5.6490    6.4290   -1.9300 hn        1 MOL      0.358997
     41 N4         -2.1950    4.2800   -0.6350 n         1 MOL     -0.168374
     42 C13        -3.4690    4.6070   -1.2260 c3        1 MOL     -0.042815
     43 C14        -4.6680    4.0980   -0.4560 c         1 MOL      0.453469
     44 O6         -5.8140    4.0070   -0.9400 o         1 MOL     -0.559043
     45 C15        -3.4900    4.0650   -2.7330 c3        1 MOL     -0.130745
     46 C16        -3.1740    2.6140   -2.9210 c         1 MOL      0.726054
     47 O7         -3.3670    2.1110   -4.0610 o         1 MOL     -0.722018
     48 O8         -2.6620    1.9500   -1.9640 o         1 MOL     -0.722018
     49 H21        -2.0990    3.3140   -0.3370 hn        1 MOL      0.087109
     50 H22        -3.5350    5.6970   -1.2200 h1        1 MOL      0.105582
     51 H23        -2.7620    4.6950   -3.2530 hc        1 MOL      0.045290
     52 H24        -4.4610    4.2810   -3.1880 hc        1 MOL      0.045290
     53 N5         -4.5250    3.6090    0.7580 n         1 MOL     -0.254842
     54 C17        -5.5040    3.0040    1.6890 c3        1 MOL     -0.068285
     55 C18        -6.3260    1.8100    1.1160 c         1 MOL      0.517796
     56 O9         -7.2970    1.3670    1.7310 o         1 MOL     -0.577275
     57 H25        -3.5590    3.6640    1.0530 hn        1 MOL      0.174954
     58 H26        -6.1860    3.7440    2.0880 h1        1 MOL      0.102048
     59 H27        -4.9970    2.7060    2.6070 h1        1 MOL      0.102048
     60 N6         -5.9960    1.2770   -0.1200 n         1 MOL     -0.229607
     61 C19        -6.7040    0.2380   -0.9220 c3        1 MOL     -0.078491
     62 C20        -6.7730   -1.1940   -0.2210 c         1 MOL      0.452095
     63 O10        -7.3220   -2.1290   -0.7260 o         1 MOL     -0.525986
     64 C21        -6.1520    0.0850   -2.3580 c3        1 MOL     -0.242948
     65 C22        -4.8040   -0.6320   -2.5200 c         1 MOL      0.639893
     66 N7         -4.5660   -1.0890   -3.6950 n         1 MOL     -0.551975
     67 O11        -3.9940   -0.8520   -1.6380 o         1 MOL     -0.555982
     68 H28        -5.2170    1.7500   -0.5590 hn        1 MOL      0.192761
     69 H29        -7.7150    0.6320   -0.9400 h1        1 MOL      0.117475
     70 H30        -5.9810    1.0900   -2.7450 hc        1 MOL      0.107433
     71 H31        -6.9130   -0.3370   -3.0110 hc        1 MOL      0.107433
     72 H32        -5.2720   -0.9420   -4.3980 hn        1 MOL      0.282126
     73 H33        -3.7320   -1.5460   -4.0220 hn        1 MOL      0.282126
     74 N8         -6.2180   -1.3140    0.9850 n         1 MOL     -0.264916
     75 C23        -6.5000   -2.4180    1.8580 c3        1 MOL      0.037965
     76 C24        -5.2760   -3.2570    2.1700 c         1 MOL      0.444747
     77 O12        -5.3780   -4.0960    3.0260 o         1 MOL     -0.542982
     78 H34        -5.7370   -0.5660    1.4690 hn        1 MOL      0.348860
     79 H35        -7.3330   -3.0400    1.5120 h1        1 MOL      0.054194
     80 H36        -6.9370   -2.0290    2.7800 h1        1 MOL      0.054194
     81 N9         -4.0910   -2.8590    1.5970 n         1 MOL     -0.157236
     82 C25        -2.9130   -3.7890    1.6310 c3        1 MOL     -0.046709
     83 C26        -1.5360   -3.1270    1.3640 c         1 MOL      0.587053
     84 O13        -1.4830   -2.0100    0.7180 o         1 MOL     -0.623622
     85 C27        -3.1590   -4.9840    0.6780 c3        1 MOL     -0.169783
     86 C28        -3.2540   -4.5770   -0.7720 ca        1 MOL     -0.000674
     87 C29        -2.1030   -4.5530   -1.6040 ca        1 MOL     -0.081082
     88 C30        -4.4660   -4.3930   -1.3450 ca        1 MOL     -0.081082
     89 C31        -2.1310   -4.3260   -2.9810 ca        1 MOL     -0.339997
     90 C32        -4.5260   -4.0940   -2.7770 ca        1 MOL     -0.339997
     91 C33        -3.3790   -4.0340   -3.5720 ca        1 MOL      0.397439
     92 O14        -3.3800   -3.8810   -4.9160 oh        1 MOL     -0.544097
     93 H37        -4.0530   -1.9670    1.1160 hn        1 MOL      0.159523
     94 H38        -2.7280   -4.2980    2.5750 h1        1 MOL      0.058208
     95 H39        -4.1090   -5.4350    0.9330 hc        1 MOL      0.086250
     96 H40        -2.3600   -5.7190    0.7160 hc        1 MOL      0.086250
     97 H41        -1.1490   -4.7930   -1.1390 ha        1 MOL      0.134602
     98 H42        -5.3760   -4.3860   -0.7600 ha        1 MOL      0.134602
     99 H43        -1.2800   -4.3380   -3.6510 ha        1 MOL      0.159550
    100 H44        -5.4610   -4.1210   -3.3010 ha        1 MOL      0.159550
    101 H45        -2.5610   -4.0470   -5.3810 ho        1 MOL      0.379658
    102 N10        -0.4670   -3.5980    2.0750 n         1 MOL     -0.506911
    103 C34         0.8960   -3.0080    1.8790 c3        1 MOL     -0.003736
    104 C35         1.6570   -3.7470    0.8480 c         1 MOL      0.411926
    105 O15         1.3450   -4.9220    0.6320 o         1 MOL     -0.545619
    106 C36         1.6480   -3.0120    3.2320 c3        1 MOL      0.098909
    107 C37         0.9080   -2.4020    4.4060 c3        1 MOL      0.158296
    108 C38         3.0760   -2.4110    3.1200 c3        1 MOL     -0.231055
    109 C39         1.5090   -2.7730    5.7430 c3        1 MOL     -0.250751
    110 H46        -0.6690   -4.3280    2.7310 hn        1 MOL      0.347593
    111 H47         0.8230   -1.9640    1.5990 h1        1 MOL      0.118846
    112 H48         1.8070   -4.0690    3.4630 hc        1 MOL      0.017869
    113 H49        -0.1100   -2.7770    4.3920 hc        1 MOL     -0.027221
    114 H50         0.8390   -1.3210    4.3350 hc        1 MOL     -0.027221
    115 H51         3.0420   -1.3370    2.9210 hc        1 MOL      0.047693
    116 H52         3.6640   -2.6070    4.0060 hc        1 MOL      0.047693
    117 H53         3.6640   -2.7970    2.2860 hc        1 MOL      0.047693
    118 H54         0.9700   -2.2650    6.5290 hc        1 MOL      0.058952
    119 H55         1.5450   -3.8510    5.8420 hc        1 MOL      0.058952
    120 H56         2.5350   -2.4100    5.8440 hc        1 MOL      0.058952
    121 N11         2.5830   -3.0970    0.1710 n         1 MOL     -0.011935
    122 C40         3.5720   -3.6340   -0.8360 c3        1 MOL     -0.101222
    123 C41         4.9300   -3.0340   -0.5560 c         1 MOL      0.390411
    124 O16         5.1390   -2.1210    0.2820 o         1 MOL     -0.302677
    125 C42         3.0580   -3.3990   -2.2260 c3        1 MOL      0.310246
    126 O17         3.0460   -2.0560   -2.5340 oh        1 MOL     -0.682080
    127 H57         2.6850   -2.1150    0.3950 hn        1 MOL     -0.028280
    128 H58         3.5450   -4.7210   -0.7530 h1        1 MOL      0.067513
    129 H59         2.0860   -3.8680   -2.3310 h1        1 MOL     -0.005511
    130 H60         3.7000   -3.9520   -2.9040 h1        1 MOL     -0.005511
    131 H61         2.4040   -1.5760   -2.0100 ho        1 MOL      0.423374
    132 N12         5.9910   -3.6070   -1.2130 n         1 MOL     -0.465846
    133 C43         7.4300   -3.4340   -0.8390 c3        1 MOL      0.226428
    134 C44         7.9430   -2.0000   -0.9540 c         1 MOL      0.368688
    135 O18         8.7220   -1.5190   -0.1250 o         1 MOL     -0.484747
    136 C45         8.2940   -4.4480   -1.6040 c3        1 MOL     -0.265463
    137 H62         5.7500   -4.2920   -1.9160 hn        1 MOL      0.297723
    138 H63         7.5520   -3.7030    0.2070 h1        1 MOL      0.046165
    139 H64         7.8660   -5.4520   -1.5390 hc        1 MOL      0.082332
    140 H65         8.2740   -4.1240   -2.6430 hc        1 MOL      0.082332
    141 H66         9.3010   -4.3730   -1.1990 hc        1 MOL      0.082332
    142 N13         7.5420   -1.3760   -2.0350 n         1 MOL     -0.252499
    143 C46         7.7480    0.0540   -2.2480 c3        1 MOL     -0.021346
    144 C47         6.9350    1.0620   -1.4040 c         1 MOL      0.470799
    145 O19         7.5380    1.9480   -0.7960 o         1 MOL     -0.541570
    146 C48         7.5540    0.3010   -3.7500 c3        1 MOL     -0.243531
    147 H67         7.0360   -1.9410   -2.7130 hn        1 MOL      0.247536
    148 H68         8.8080    0.2700   -2.0960 h1        1 MOL      0.126723
    149 H69         7.6350    1.3730   -3.9550 hc        1 MOL      0.072494
    150 H70         8.1760   -0.2270   -4.4790 hc        1 MOL      0.072494
    151 H71         6.5420    0.0380   -4.0400 hc        1 MOL      0.072494
    152 N14         5.7210    0.7880   -0.9250 n         1 MOL     -0.347764
    153 C49         5.0240    1.6420   -0.0390 c3        1 MOL      0.065531
    154 C50         5.5640    1.3720    1.4420 c         1 MOL      0.441090
    155 O20         5.4300    2.2770    2.2270 o         1 MOL     -0.534966
    156 C51         3.4920    1.6410   -0.2330 c3        1 MOL     -0.077367
    157 C52         2.8790    0.3120    0.0870 c3        1 MOL      0.170756
    158 C53         1.4440    0.1420   -0.3120 c         1 MOL      0.558488
    159 O21         0.6180    1.0430    0.0030 o         1 MOL     -0.650726
    160 O22         1.0660   -0.8320   -1.0020 o         1 MOL     -0.650726
    161 H72         5.4290   -0.1480   -1.2000 hn        1 MOL      0.160920
    162 H73         5.2630    2.6880   -0.2090 h1        1 MOL      0.048873
    163 H74         3.2220    1.8370   -1.2710 hc        1 MOL      0.008667
    164 H75         3.0850    2.3840    0.4660 hc        1 MOL      0.008667
    165 H76         3.0020    0.0210    1.1220 hc        1 MOL     -0.010978
    166 H77         3.4410   -0.3860   -0.5350 hc        1 MOL     -0.010978
    167 N15         6.1890    0.1960    1.7300 n         1 MOL     -0.039100
    168 C54         6.9390   -0.1580    2.9530 c3        1 MOL     -0.175526
    169 H78         7.8910   -0.6080    2.6760 h1        1 MOL      0.083710
    170 H79         7.1200    0.7410    3.5410 h1        1 MOL      0.083710
    171 H80         6.3600   -0.8680    3.5420 h1        1 MOL      0.083710
    172 H81         5.9240   -0.6020    1.1890 hn        1 MOL      0.063451
    173 Ca1        -1.3810   -0.0000   -1.1080 Ca        1 MOL      1.782779
    174 O23        -0.0350    1.2810   -2.8050 oh        1 MOL     -0.889754
    175 H82         0.7720    1.0500   -3.2580 ho        1 MOL      0.420791
    176 H83        -0.4020    2.0000   -3.3150 ho        1 MOL      0.420791
    177 O24        -1.2240   -1.3250   -3.4150 oh        1 MOL     -0.889754
    178 H84        -0.4320   -1.6850   -3.8120 ho        1 MOL      0.420791
    179 H85        -1.7120   -0.9560   -4.1630 ho        1 MOL      0.420791
@<TRIPOS>BOND
     1    1    2 1   
     2    1    4 1   
     3    1    5 1   
     4    1    6 1   
     5    2    3 2   
     6    2    7 1   
     7    7    8 1   
     8    7   15 1   
     9    8    9 1   
    10    8   11 1   
    11    8   16 1   
    12    9   10 2   
    13    9   19 1   
    14   11   12 1   
    15   11   17 1   
    16   11   18 1   
    17   12   13 1   
    18   12   14 1   
    19   19   20 1   
    20   19   28 1   
    21   20   21 1   
    22   20   23 1   
    23   20   29 1   
    24   21   22 2   
    25   21   41 1   
    26   23   24 1   
    27   23   30 1   
    28   23   31 1   
    29   24   25 1   
    30   24   32 1   
    31   24   33 1   
    32   25   26 1   
    33   25   34 1   
    34   25   35 1   
    35   26   27 1   
    36   26   36 1   
    37   26   37 1   
    38   27   38 1   
    39   27   39 1   
    40   27   40 1   
    41   41   42 1   
    42   41   49 1   
    43   42   43 1   
    44   42   45 1   
    45   42   50 1   
    46   43   44 2   
    47   43   53 1   
    48   45   46 1   
    49   45   51 1   
    50   45   52 1   
    51   46   47 1   
    52   46   48 1   
    53   53   54 1   
    54   53   57 1   
    55   54   55 1   
    56   54   58 1   
    57   54   59 1   
    58   55   56 2   
    59   55   60 1   
    60   60   61 1   
    61   60   68 1   
    62   61   62 1   
    63   61   64 1   
    64   61   69 1   
    65   62   63 2   
    66   62   74 1   
    67   64   65 1   
    68   64   70 1   
    69   64   71 1   
    70   65   66 1   
    71   65   67 2   
    72   66   72 1   
    73   66   73 1   
    74   74   75 1   
    75   74   78 1   
    76   75   76 1   
    77   75   79 1   
    78   75   80 1   
    79   76   77 2   
    80   76   81 1   
    81   81   82 1   
    82   81   93 1   
    83   82   83 1   
    84   82   85 1   
    85   82   94 1   
    86   83   84 2   
    87   83  102 1   
    88   85   86 1   
    89   85   95 1   
    90   85   96 1   
    91   86   87 ar  
    92   86   88 ar  
    93   87   89 ar  
    94   87   97 1   
    95   88   90 ar  
    96   88   98 1   
    97   89   91 ar  
    98   89   99 1   
    99   90   91 ar  
   100   90  100 1   
   101   91   92 1   
   102   92  101 1   
   103  102  103 1   
   104  102  110 1   
   105  103  104 1   
   106  103  106 1   
   107  103  111 1   
   108  104  105 2   
   109  104  121 1   
   110  106  107 1   
   111  106  108 1   
   112  106  112 1   
   113  107  109 1   
   114  107  113 1   
   115  107  114 1   
   116  108  115 1   
   117  108  116 1   
   118  108  117 1   
   119  109  118 1   
   120  109  119 1   
   121  109  120 1   
   122  121  122 1   
   123  121  127 1   
   124  122  123 1   
   125  122  125 1   
   126  122  128 1   
   127  123  124 2   
   128  123  132 1   
   129  125  126 1   
   130  125  129 1   
   131  125  130 1   
   132  126  131 1   
   133  132  133 1   
   134  132  137 1   
   135  133  134 1   
   136  133  136 1   
   137  133  138 1   
   138  134  135 2   
   139  134  142 1   
   140  136  139 1   
   141  136  140 1   
   142  136  141 1   
   143  142  143 1   
   144  142  147 1   
   145  143  144 1   
   146  143  146 1   
   147  143  148 1   
   148  144  145 2   
   149  144  152 1   
   150  146  149 1   
   151  146  150 1   
   152  146  151 1   
   153  152  153 1   
   154  152  161 1   
   155  153  154 1   
   156  153  156 1   
   157  153  162 1   
   158  154  155 2   
   159  154  167 1   
   160  156  157 1   
   161  156  163 1   
   162  156  164 1   
   163  157  158 1   
   164  157  165 1   
   165  157  166 1   
   166  158  159 1   
   167  158  160 1   
   168  167  168 1   
   169  167  172 1   
   170  168  169 1   
   171  168  170 1   
   172  168  171 1   
   173  174  175 1   
   174  174  176 1   
   175  177  178 1   
   176  177  179 1   
@<TRIPOS>SUBSTRUCTURE
     1 MOL         1 TEMP              0 ****  ****    0 ROOT
