@<TRIPOS>MOLECULE
MOL
  189   185     1     0     0
SMALL
resp


@<TRIPOS>ATOM
      1 C1         -0.0380   -2.5390    6.9430 c3        1 MOL     -0.393324
      2 C2          0.0980   -2.3940    5.3990 c         1 MOL      0.698288
      3 O1         -0.9570   -2.2050    4.6940 o         1 MOL     -0.618500
      4 H1         -1.0670   -2.7980    7.1930 hc        1 MOL      0.112280
      5 H2          0.6290   -3.3250    7.2940 hc        1 MOL      0.112280
      6 H3          0.2250   -1.5960    7.4220 hc        1 MOL      0.112280
      7 N1          1.3010   -2.4100    4.7740 n         1 MOL     -0.628669
      8 C3          1.6770   -2.1390    3.3470 c3        1 MOL      0.372672
      9 C4          2.1180   -3.4130    2.6910 c         1 MOL      0.324732
     10 O2          3.0300   -4.0880    3.1510 o         1 MOL     -0.543460
     11 C5          2.6390   -1.0220    3.3400 c3        1 MOL     -0.268496
     12 C6          3.0860   -0.6830    1.9180 c         1 MOL      0.846164
     13 O3          3.1170    0.4950    1.5570 o         1 MOL     -0.799524
     14 O4          3.1510   -1.5490    0.9880 o         1 MOL     -0.799524
     15 H4          2.0310   -2.7580    5.3780 hn        1 MOL      0.297747
     16 H5          0.7480   -1.8290    2.8620 h1        1 MOL      0.011816
     17 H6          3.5630   -1.2440    3.8770 hc        1 MOL      0.068583
     18 H7          2.1380   -0.1420    3.7350 hc        1 MOL      0.068583
     19 N2          1.5100   -3.7220    1.5970 n         1 MOL     -0.044487
     20 C7          1.4730   -5.0620    0.9540 c3        1 MOL     -0.275939
     21 C8          2.7000   -5.2320    0.0270 c         1 MOL      0.551459
     22 O5          2.9640   -6.3490   -0.4640 o         1 MOL     -0.578120
     23 C9          0.1190   -5.2410    0.1120 c3        1 MOL      0.065061
     24 C10         0.2060   -4.5570   -1.3480 c3        1 MOL     -0.084432
     25 C11        -1.1760   -4.5590   -1.9850 c3        1 MOL     -0.045510
     26 C12        -1.0230   -4.0320   -3.4170 c3        1 MOL     -0.007442
     27 N3         -2.2740   -3.9090   -4.1290 n4        1 MOL     -0.324511
     28 H8          0.8700   -3.0160    1.2490 hn        1 MOL      0.073840
     29 H9          1.5830   -5.8560    1.6950 h1        1 MOL      0.157935
     30 H10        -0.6460   -4.8780    0.8060 hc        1 MOL      0.022556
     31 H11        -0.1580   -6.2860    0.0030 hc        1 MOL      0.022556
     32 H12         0.9590   -5.1240   -1.8990 hc        1 MOL      0.053884
     33 H13         0.5070   -3.5250   -1.1650 hc        1 MOL      0.053884
     34 H14        -1.8980   -3.9780   -1.4180 hc        1 MOL      0.031052
     35 H15        -1.5790   -5.5710   -2.0140 hc        1 MOL      0.031052
     36 H16        -0.4250   -4.7590   -3.9590 hx        1 MOL      0.131060
     37 H17        -0.5660   -3.0380   -3.4450 hx        1 MOL      0.131060
     38 H18        -2.7900   -4.7650   -4.2940 hn        1 MOL      0.261704
     39 H19        -2.8920   -3.1770   -3.8180 hn        1 MOL      0.261704
     40 H20        -2.0670   -3.7210   -5.0990 hn        1 MOL      0.261704
     41 N4          3.4510   -4.1670   -0.1860 n         1 MOL     -0.316930
     42 C13         4.7480   -4.1850   -0.9010 c3        1 MOL     -0.116792
     43 C14         5.9310   -3.3660   -0.2870 c         1 MOL      0.523454
     44 O6          7.0230   -3.3830   -0.7490 o         1 MOL     -0.521344
     45 C15         4.4910   -3.9450   -2.4140 c3        1 MOL     -0.057373
     46 C16         3.5940   -2.7420   -2.7460 c         1 MOL      0.758129
     47 O7          2.8680   -2.7570   -3.8290 o         1 MOL     -0.733805
     48 O8          3.5170   -1.7370   -1.9720 o         1 MOL     -0.733805
     49 H21         3.0940   -3.3130    0.2220 hn        1 MOL      0.298227
     50 H22         5.1300   -5.2090   -0.8640 h1        1 MOL      0.127448
     51 H23         3.9140   -4.7860   -2.7830 hc        1 MOL      0.037135
     52 H24         5.4110   -3.9300   -3.0090 hc        1 MOL      0.037135
     53 N5          5.7320   -2.5300    0.7870 n         1 MOL     -0.314108
     54 C17         6.6840   -1.6370    1.4040 c3        1 MOL     -0.128699
     55 C18         7.2180   -0.5970    0.4250 c         1 MOL      0.544567
     56 O9          8.2510   -0.0180    0.7260 o         1 MOL     -0.597408
     57 H25         4.7970   -2.4830    1.1460 hn        1 MOL      0.197665
     58 H26         7.5640   -2.1700    1.7570 h1        1 MOL      0.100920
     59 H27         6.2560   -1.1880    2.3000 h1        1 MOL      0.100920
     60 N6          6.4580   -0.1050   -0.5350 n         1 MOL     -0.154427
     61 C19         6.9060    0.8860   -1.5540 c3        1 MOL     -0.005666
     62 C20         6.9660    2.3700   -1.0320 c         1 MOL      0.435171
     63 O10         7.3530    3.2870   -1.7760 o         1 MOL     -0.488563
     64 C21         6.1190    0.7720   -2.8790 c3        1 MOL     -0.368931
     65 C22         4.7070    1.2120   -2.8560 c         1 MOL      0.882682
     66 O11         4.1440    1.4570   -3.9440 o         1 MOL     -0.667304
     67 O12         4.1580    1.4430   -1.7540 o         1 MOL     -0.667304
     68 H28         5.5100   -0.4060   -0.6770 hn        1 MOL      0.107840
     69 H29         7.9450    0.7270   -1.8250 h1        1 MOL      0.107461
     70 H30         6.1190   -0.2720   -3.1790 hc        1 MOL      0.117143
     71 H31         6.6210    1.4370   -3.5850 hc        1 MOL      0.117143
     72 N7          6.5290    2.5940    0.2080 n         1 MOL     -0.292234
     73 C23         6.5090    3.9460    0.8610 c3        1 MOL     -0.004103
     74 C24         5.2860    4.7600    0.5000 c         1 MOL      0.528202
     75 O13         5.3410    5.9810    0.6040 o         1 MOL     -0.596843
     76 H32         6.3260    1.8160    0.8300 hn        1 MOL      0.255088
     77 H33         7.4050    4.5610    0.7250 h1        1 MOL      0.058205
     78 H34         6.4040    3.8920    1.9470 h1        1 MOL      0.058205
     79 N8          4.2620    4.1470    0.0800 n         1 MOL     -0.171680
     80 C25         2.9360    4.7760   -0.2410 c3        1 MOL     -0.331869
     81 C26         1.8100    3.8170    0.1850 c         1 MOL      0.783404
     82 O14         1.8510    2.6600   -0.2140 o         1 MOL     -0.659176
     83 C27         2.8160    5.1090   -1.7410 c3        1 MOL      0.503605
     84 C28         3.3550    6.4670   -2.0440 c3        1 MOL     -0.415568
     85 O15         3.5180    4.1170   -2.5380 oh        1 MOL     -0.576961
     86 H35         4.3190    3.1600   -0.1240 hn        1 MOL      0.152052
     87 H36         2.8350    5.7260    0.2790 h1        1 MOL      0.130712
     88 H37         1.7600    5.0730   -1.9740 h1        1 MOL     -0.052043
     89 H38         3.4160    3.3010   -2.0530 ho        1 MOL      0.360248
     90 H39         3.2870    6.6010   -3.1240 hc        1 MOL      0.111827
     91 H40         2.8250    7.3030   -1.5830 hc        1 MOL      0.111827
     92 H41         4.4240    6.5130   -1.8280 hc        1 MOL      0.111827
     93 N9          0.7880    4.2820    0.9390 n         1 MOL     -0.699015
     94 C29        -0.4040    3.5100    1.2440 c3        1 MOL      0.252933
     95 C30        -1.5410    3.7870    0.2860 c         1 MOL      0.464898
     96 O16        -1.8640    4.9630    0.0170 o         1 MOL     -0.551449
     97 C31        -0.7160    3.4400    2.7770 c3        1 MOL      0.080492
     98 C32         0.3210    2.4880    3.5120 c3        1 MOL      0.183400
     99 C33        -2.2020    3.1160    2.9480 c3        1 MOL     -0.088725
    100 C34        -0.1680    2.0610    4.8740 c3        1 MOL     -0.288256
    101 H42         0.7490    5.2880    1.0240 hn        1 MOL      0.333923
    102 H43        -0.1690    2.4530    1.0670 h1        1 MOL      0.016247
    103 H44        -0.5400    4.4270    3.2040 hc        1 MOL     -0.008497
    104 H45         1.2510    3.0610    3.5540 hc        1 MOL     -0.029644
    105 H46         0.5280    1.6280    2.8830 hc        1 MOL     -0.029644
    106 H47        -2.4520    3.2670    4.0020 hc        1 MOL      0.003799
    107 H48        -2.8370    3.7640    2.3480 hc        1 MOL      0.003799
    108 H49        -2.3290    2.0570    2.7370 hc        1 MOL      0.003799
    109 H50        -0.8590    1.2300    4.7810 hc        1 MOL      0.067847
    110 H51         0.6660    1.5820    5.3760 hc        1 MOL      0.067847
    111 H52        -0.5490    2.8990    5.4670 hc        1 MOL      0.067847
    112 N10        -2.2180    2.6840   -0.1590 n         1 MOL     -0.009724
    113 C35        -3.3280    2.7520   -1.1540 c3        1 MOL     -0.073525
    114 C36        -4.6950    2.5250   -0.3950 c         1 MOL      0.271385
    115 O17        -4.6750    2.1090    0.7290 o         1 MOL     -0.233950
    116 C37        -3.2360    1.6580   -2.2370 c3        1 MOL      0.363033
    117 C38        -2.0300    1.8590   -3.1050 c3        1 MOL     -0.295502
    118 O18        -3.1630    0.3250   -1.6600 oh        1 MOL     -0.656265
    119 H53        -1.9100    1.7730    0.1640 hn        1 MOL     -0.201742
    120 H54        -3.3080    3.6910   -1.7200 h1        1 MOL      0.074981
    121 H55        -3.9990    1.7540   -3.0080 h1        1 MOL     -0.016202
    122 H56        -2.2850    0.1340   -1.3270 ho        1 MOL      0.421627
    123 H57        -2.0060    1.1690   -3.9500 hc        1 MOL      0.083205
    124 H58        -1.9980    2.8740   -3.4950 hc        1 MOL      0.083205
    125 H59        -1.1000    1.7320   -2.5490 hc        1 MOL      0.083205
    126 N11        -5.8410    2.6740   -1.0260 n         1 MOL     -0.293451
    127 C39        -7.2200    2.4660   -0.4490 c3        1 MOL     -0.047459
    128 C40        -7.3360    1.1500    0.2770 c         1 MOL      0.174756
    129 O19        -7.9120    1.1590    1.3900 o         1 MOL     -0.443711
    130 C41        -8.4320    2.6020   -1.4320 c3        1 MOL      0.288315
    131 C42        -8.7730    4.0550   -1.6370 c3        1 MOL     -0.455987
    132 O20        -8.2780    1.8990   -2.6690 oh        1 MOL     -0.706179
    133 H60        -5.8580    3.0490   -1.9620 hn        1 MOL      0.265349
    134 H61        -7.3370    3.2060    0.3450 h1        1 MOL      0.149726
    135 H62        -9.2490    2.0780   -0.9140 h1        1 MOL      0.074426
    136 H63        -9.0540    1.9210   -3.2330 ho        1 MOL      0.444712
    137 H64        -9.7850    4.2090   -2.0200 hc        1 MOL      0.135109
    138 H65        -8.5950    4.6420   -0.7340 hc        1 MOL      0.135109
    139 H66        -8.0490    4.5290   -2.2910 hc        1 MOL      0.135109
    140 N12        -6.7660    0.0320   -0.2980 n         1 MOL      0.021487
    141 C43        -6.9360   -1.3690    0.2360 c3        1 MOL      0.047354
    142 C44        -6.0210   -1.5510    1.3660 c         1 MOL      0.351773
    143 O21        -6.3510   -2.1780    2.3720 o         1 MOL     -0.494334
    144 C45        -6.5390   -2.3000   -0.9040 c3        1 MOL     -0.052385
    145 C46        -7.8480   -2.4020   -1.8310 c3        1 MOL     -0.176092
    146 C47        -7.7270   -3.0930   -3.1640 c3        1 MOL     -0.268461
    147 C48        -6.9820   -2.3520   -4.3060 c3        1 MOL      0.070908
    148 N13        -6.9950   -3.1100   -5.5940 n4        1 MOL     -0.301943
    149 H67        -6.3540    0.2250   -1.1950 hn        1 MOL      0.170918
    150 H68        -7.9420   -1.6020    0.5990 h1        1 MOL      0.080518
    151 H69        -6.3000   -3.2880   -0.4920 hc        1 MOL      0.050406
    152 H70        -5.6430   -1.9570   -1.4070 hc        1 MOL      0.050406
    153 H71        -8.2030   -1.3890   -2.0140 hc        1 MOL      0.102568
    154 H72        -8.5810   -2.9790   -1.2720 hc        1 MOL      0.102568
    155 H73        -8.7370   -3.1820   -3.5460 hc        1 MOL      0.121578
    156 H74        -7.3380   -4.0990   -3.0180 hc        1 MOL      0.121578
    157 H75        -5.9510   -2.2190   -3.9830 hx        1 MOL      0.070771
    158 H76        -7.4820   -1.3960   -4.4580 hx        1 MOL      0.070771
    159 H77        -6.6510   -2.3980   -6.2140 hn        1 MOL      0.271880
    160 H78        -6.3360   -3.8810   -5.6000 hn        1 MOL      0.271880
    161 H79        -7.9160   -3.4050   -5.9000 hn        1 MOL      0.271880
    162 N14        -4.8250   -0.9620    1.2930 n         1 MOL     -0.217543
    163 C49        -3.8510   -1.0190    2.4500 c3        1 MOL     -0.109790
    164 C50        -4.2720   -0.1550    3.6190 c         1 MOL      0.465094
    165 O22        -3.9600   -0.3840    4.7740 o         1 MOL     -0.532930
    166 C51        -2.5070   -0.5550    1.9510 c3        1 MOL      0.014861
    167 C52        -1.7910   -1.5350    1.0630 c3        1 MOL      0.040288
    168 C53        -0.6470   -0.9200    0.2890 c         1 MOL      0.610025
    169 O23        -0.8000    0.1630   -0.3580 o         1 MOL     -0.623160
    170 O24         0.5330   -1.4180    0.3520 o         1 MOL     -0.623160
    171 H80        -4.7140   -0.2480    0.5830 hn        1 MOL     -0.034710
    172 H81        -3.7840   -2.0560    2.8020 h1        1 MOL      0.156682
    173 H82        -1.8940   -0.3870    2.8380 hc        1 MOL      0.120121
    174 H83        -2.6060    0.3960    1.4160 hc        1 MOL      0.120121
    175 H84        -2.5040   -1.9430    0.3490 hc        1 MOL     -0.022716
    176 H85        -1.4760   -2.3770    1.6930 hc        1 MOL     -0.022716
    177 N15        -5.0640    0.8770    3.3740 n         1 MOL     -0.005753
    178 C54        -5.6980    1.7340    4.3440 c3        1 MOL     -0.288550
    179 H86        -6.2450    1.1240    5.0630 h1        1 MOL      0.104840
    180 H87        -4.9390    2.3170    4.8640 h1        1 MOL      0.104840
    181 H88        -6.3900    2.4060    3.8370 h1        1 MOL      0.104840
    182 H89        -5.0580    1.2020    2.4140 hn        1 MOL      0.081212
    183 Ca1         2.0370    0.1630   -0.8180 Ca        1 MOL      1.788229
    184 O25         1.6100    1.7290   -3.0270 oh        1 MOL     -0.918698
    185 H90         1.1410    1.7670   -3.8700 ho        1 MOL      0.410196
    186 H91         2.5220    1.8810   -3.2540 ho        1 MOL      0.410196
    187 O26         0.8650   -1.1340   -2.8350 oh        1 MOL     -0.918698
    188 H92         1.6280   -1.6430   -3.1190 ho        1 MOL      0.410196
    189 H93         0.2870   -1.1280   -3.5980 ho        1 MOL      0.410196
@<TRIPOS>BOND
     1    1    2 1   
     2    1    4 1   
     3    1    5 1   
     4    1    6 1   
     5    2    3 2   
     6    2    7 1   
     7    7    8 1   
     8    7   15 1   
     9    8    9 1   
    10    8   11 1   
    11    8   16 1   
    12    9   10 2   
    13    9   19 1   
    14   11   12 1   
    15   11   17 1   
    16   11   18 1   
    17   12   13 1   
    18   12   14 1   
    19   19   20 1   
    20   19   28 1   
    21   20   21 1   
    22   20   23 1   
    23   20   29 1   
    24   21   22 2   
    25   21   41 1   
    26   23   24 1   
    27   23   30 1   
    28   23   31 1   
    29   24   25 1   
    30   24   32 1   
    31   24   33 1   
    32   25   26 1   
    33   25   34 1   
    34   25   35 1   
    35   26   27 1   
    36   26   36 1   
    37   26   37 1   
    38   27   38 1   
    39   27   39 1   
    40   27   40 1   
    41   41   42 1   
    42   41   49 1   
    43   42   43 1   
    44   42   45 1   
    45   42   50 1   
    46   43   44 2   
    47   43   53 1   
    48   45   46 1   
    49   45   51 1   
    50   45   52 1   
    51   46   47 1   
    52   46   48 1   
    53   53   54 1   
    54   53   57 1   
    55   54   55 1   
    56   54   58 1   
    57   54   59 1   
    58   55   56 2   
    59   55   60 1   
    60   60   61 1   
    61   60   68 1   
    62   61   62 1   
    63   61   64 1   
    64   61   69 1   
    65   62   63 2   
    66   62   72 1   
    67   64   65 1   
    68   64   70 1   
    69   64   71 1   
    70   65   66 1   
    71   65   67 1   
    72   72   73 1   
    73   72   76 1   
    74   73   74 1   
    75   73   77 1   
    76   73   78 1   
    77   74   75 2   
    78   74   79 1   
    79   79   80 1   
    80   79   86 1   
    81   80   81 1   
    82   80   83 1   
    83   80   87 1   
    84   81   82 2   
    85   81   93 1   
    86   83   84 1   
    87   83   85 1   
    88   83   88 1   
    89   84   90 1   
    90   84   91 1   
    91   84   92 1   
    92   85   89 1   
    93   93   94 1   
    94   93  101 1   
    95   94   95 1   
    96   94   97 1   
    97   94  102 1   
    98   95   96 2   
    99   95  112 1   
   100   97   98 1   
   101   97   99 1   
   102   97  103 1   
   103   98  100 1   
   104   98  104 1   
   105   98  105 1   
   106   99  106 1   
   107   99  107 1   
   108   99  108 1   
   109  100  109 1   
   110  100  110 1   
   111  100  111 1   
   112  112  113 1   
   113  112  119 1   
   114  113  114 1   
   115  113  116 1   
   116  113  120 1   
   117  114  115 2   
   118  114  126 1   
   119  116  117 1   
   120  116  118 1   
   121  116  121 1   
   122  117  123 1   
   123  117  124 1   
   124  117  125 1   
   125  118  122 1   
   126  126  127 1   
   127  126  133 1   
   128  127  128 1   
   129  127  130 1   
   130  127  134 1   
   131  128  129 2   
   132  128  140 1   
   133  130  131 1   
   134  130  132 1   
   135  130  135 1   
   136  131  137 1   
   137  131  138 1   
   138  131  139 1   
   139  132  136 1   
   140  140  141 1   
   141  140  149 1   
   142  141  142 1   
   143  141  144 1   
   144  141  150 1   
   145  142  143 2   
   146  142  162 1   
   147  144  145 1   
   148  144  151 1   
   149  144  152 1   
   150  145  146 1   
   151  145  153 1   
   152  145  154 1   
   153  146  147 1   
   154  146  155 1   
   155  146  156 1   
   156  147  148 1   
   157  147  157 1   
   158  147  158 1   
   159  148  159 1   
   160  148  160 1   
   161  148  161 1   
   162  162  163 1   
   163  162  171 1   
   164  163  164 1   
   165  163  166 1   
   166  163  172 1   
   167  164  165 2   
   168  164  177 1   
   169  166  167 1   
   170  166  173 1   
   171  166  174 1   
   172  167  168 1   
   173  167  175 1   
   174  167  176 1   
   175  168  169 1   
   176  168  170 1   
   177  177  178 1   
   178  177  182 1   
   179  178  179 1   
   180  178  180 1   
   181  178  181 1   
   182  184  185 1   
   183  184  186 1   
   184  187  188 1   
   185  187  189 1   
@<TRIPOS>SUBSTRUCTURE
     1 MOL         1 TEMP              0 ****  ****    0 ROOT
