@<TRIPOS>MOLECULE
MOL
  175   173     1     0     0
SMALL
resp


@<TRIPOS>ATOM
      1 C1          0.7760    3.6530    5.6030 c3        1 MOL     -0.321788
      2 C2          0.2220    3.6580    4.2660 c         1 MOL      0.684421
      3 O1          0.9530    3.9140    3.2600 o         1 MOL     -0.558163
      4 H1         -0.0270    3.5170    6.3280 hc        1 MOL      0.082175
      5 H2          1.4920    2.8370    5.6980 hc        1 MOL      0.082175
      6 H3          1.2790    4.6020    5.7920 hc        1 MOL      0.082175
      7 N1         -1.0930    3.4590    4.0770 n         1 MOL     -0.613827
      8 C3         -1.7480    3.4450    2.8300 c3        1 MOL      0.150914
      9 C4         -1.8220    4.7550    1.9410 c         1 MOL      0.643731
     10 O2         -1.9200    5.8430    2.4090 o         1 MOL     -0.577711
     11 C5         -3.1560    2.7860    3.0980 c3        1 MOL     -0.090892
     12 C6         -3.8880    2.4860    1.8700 c         1 MOL      0.611618
     13 O3         -5.0530    2.8290    1.8500 o         1 MOL     -0.628323
     14 O4         -3.2840    1.8880    0.9380 o         1 MOL     -0.628323
     15 H4         -1.6660    3.4810    4.9020 hn        1 MOL      0.315324
     16 H5         -1.3270    2.6540    2.2210 h1        1 MOL      0.076202
     17 H6         -3.7150    3.4380    3.7610 hc        1 MOL     -0.015210
     18 H7         -2.9820    1.8120    3.5540 hc        1 MOL     -0.015210
     19 N2         -1.9400    4.6060    0.6210 n         1 MOL     -0.600246
     20 C7         -1.9810    5.7330   -0.3000 c3        1 MOL      0.383833
     21 C8         -3.0420    5.4030   -1.4050 c         1 MOL      0.452081
     22 O5         -3.3080    6.2760   -2.1660 o         1 MOL     -0.563133
     23 C9         -0.6000    5.9850   -0.7840 c3        1 MOL     -0.358982
     24 H8         -1.6140    3.7460    0.2260 hn        1 MOL      0.310607
     25 H9         -2.3530    6.6120    0.2200 h1        1 MOL      0.002056
     26 H10        -0.3990    5.0220   -1.2450 hc        1 MOL      0.088991
     27 H11        -0.6220    6.8680   -1.4230 hc        1 MOL      0.088991
     28 H12         0.0700    6.1000    0.0710 hc        1 MOL      0.088991
     29 N3         -3.6400    4.1740   -1.5120 n         1 MOL     -0.312862
     30 C10        -4.5110    3.7100   -2.5900 c3        1 MOL      0.019239
     31 C11        -5.9160    2.9660   -2.2430 c         1 MOL      0.326545
     32 O6         -6.7690    2.8530   -3.1210 o         1 MOL     -0.538431
     33 C12        -3.7690    2.7780   -3.5270 c3        1 MOL     -0.088443
     34 C13        -3.1990    1.6180   -2.7060 c         1 MOL      0.696670
     35 O7         -3.9100    0.9880   -1.8700 o         1 MOL     -0.711199
     36 O8         -2.0030    1.3350   -2.9520 o         1 MOL     -0.711199
     37 H13        -3.4060    3.5020   -0.7990 hn        1 MOL      0.189898
     38 H14        -4.6680    4.5390   -3.2860 h1        1 MOL      0.079546
     39 H15        -2.9030    3.3220   -3.9020 hc        1 MOL      0.031288
     40 H16        -4.3890    2.4850   -4.3830 hc        1 MOL      0.031288
     41 N4         -6.0950    2.5990   -1.0090 n         1 MOL     -0.030823
     42 C14        -7.3450    1.9730   -0.6260 c3        1 MOL     -0.309340
     43 C15        -7.4110    0.4780   -0.8450 c         1 MOL      0.593742
     44 O9         -8.4230   -0.1510   -0.4940 o         1 MOL     -0.630804
     45 H17        -5.3460    2.7280   -0.3510 hn        1 MOL      0.075212
     46 H18        -8.0890    2.4910   -1.2270 h1        1 MOL      0.140795
     47 H19        -7.4750    2.1770    0.4310 h1        1 MOL      0.140795
     48 N5         -6.3740   -0.2140   -1.3990 n         1 MOL     -0.259182
     49 C16        -6.4810   -1.5800   -1.9060 c3        1 MOL      0.076401
     50 C17        -6.5070   -2.6970   -0.8050 c         1 MOL      0.461844
     51 O10        -6.7230   -3.8300   -1.2580 o         1 MOL     -0.544551
     52 C18        -5.4340   -1.7970   -3.0520 c3        1 MOL     -0.203895
     53 C19        -4.0000   -1.9370   -2.5110 c         1 MOL      0.658490
     54 N6         -3.0830   -1.8570   -3.3510 n         1 MOL     -0.594180
     55 O11        -3.6850   -2.1320   -1.3800 o         1 MOL     -0.490523
     56 H20        -5.5020    0.2780   -1.5520 hn        1 MOL      0.130194
     57 H21        -7.4460   -1.7350   -2.3960 h1        1 MOL      0.077375
     58 H22        -5.4320   -0.9390   -3.7170 hc        1 MOL      0.062854
     59 H23        -5.6980   -2.6900   -3.6170 hc        1 MOL      0.062854
     60 H24        -3.3530   -1.5560   -4.2770 hn        1 MOL      0.302646
     61 H25        -2.1030   -1.9260   -3.1150 hn        1 MOL      0.302646
     62 N7         -6.4090   -2.4340    0.5130 n         1 MOL     -0.179810
     63 C20        -6.4450   -3.5130    1.5180 c3        1 MOL     -0.434315
     64 C21        -5.2040   -4.3610    1.6290 c         1 MOL      0.511657
     65 O12        -5.1830   -5.3830    2.3440 o         1 MOL     -0.580400
     66 H26        -6.0440   -1.5160    0.7640 hn        1 MOL      0.201507
     67 H27        -7.1960   -4.2480    1.2490 h1        1 MOL      0.182380
     68 H28        -6.6650   -3.0060    2.4480 h1        1 MOL      0.182380
     69 N8         -4.1020   -4.0010    0.9870 n         1 MOL      0.026446
     70 C22        -2.8380   -4.7580    0.9950 c3        1 MOL     -0.495012
     71 C23        -1.6560   -3.7720    1.0050 c         1 MOL      0.761637
     72 O13        -1.7510   -2.6100    0.5280 o         1 MOL     -0.631777
     73 C24        -2.6750   -5.5300   -0.3540 c3        1 MOL      0.569634
     74 C25        -3.7300   -6.6170   -0.6050 c3        1 MOL     -0.427588
     75 O14        -2.8500   -4.6820   -1.4590 oh        1 MOL     -0.559912
     76 H29        -4.1400   -3.1890    0.3840 hn        1 MOL      0.118851
     77 H30        -2.8370   -5.4540    1.8290 h1        1 MOL      0.164697
     78 H31        -1.7480   -6.1080   -0.4700 h1        1 MOL     -0.030861
     79 H32        -2.9480   -3.8060   -1.0750 ho        1 MOL      0.251428
     80 H33        -3.4580   -7.1360   -1.5270 hc        1 MOL      0.094109
     81 H34        -3.6380   -7.3180    0.2300 hc        1 MOL      0.094109
     82 H35        -4.7900   -6.3650   -0.5420 hc        1 MOL      0.094109
     83 N9         -0.5550   -4.1280    1.6200 n         1 MOL     -0.570360
     84 C26         0.5940   -3.1730    1.6410 c3        1 MOL      0.012407
     85 C27         1.3670   -3.2570    0.3510 c         1 MOL      0.432613
     86 O15         1.6880   -4.3990   -0.0500 o         1 MOL     -0.560244
     87 C28         1.5410   -3.5430    2.7660 c3        1 MOL      0.082895
     88 C29         0.8350   -3.9190    4.1090 c3        1 MOL      0.060557
     89 C30         2.6540   -2.4940    3.0900 c3        1 MOL     -0.325819
     90 C31         1.7000   -4.4000    5.2560 c3        1 MOL     -0.008469
     91 H36        -0.4420   -5.0640    1.9660 hn        1 MOL      0.313033
     92 H37         0.3120   -2.1380    1.7700 h1        1 MOL      0.073555
     93 H38         2.1730   -4.3810    2.4470 hc        1 MOL      0.019043
     94 H39         0.0600   -4.6690    3.9810 hc        1 MOL     -0.012948
     95 H40         0.2720   -3.0910    4.5300 hc        1 MOL     -0.012948
     96 H41         3.5500   -2.9170    3.5450 hc        1 MOL      0.065507
     97 H42         3.0130   -2.1030    2.1330 hc        1 MOL      0.065507
     98 H43         2.2620   -1.7190    3.7460 hc        1 MOL      0.065507
     99 H44         1.2300   -4.3280    6.2340 hc        1 MOL     -0.007335
    100 H45         1.9970   -5.4380    5.0990 hc        1 MOL     -0.007335
    101 H46         2.6590   -3.8930    5.3370 hc        1 MOL     -0.007335
    102 N10         1.8580   -2.1110   -0.1190 n         1 MOL     -0.099634
    103 C32         2.6890   -1.8630   -1.3020 c3        1 MOL     -0.001349
    104 C33         4.1400   -1.4340   -0.9420 c         1 MOL      0.351169
    105 O16         4.4450   -0.9760    0.1130 o         1 MOL     -0.295214
    106 C34         1.9330   -0.9570   -2.2720 c3        1 MOL     -0.316912
    107 C35         0.5220   -1.4580   -2.6140 c         1 MOL      0.790581
    108 O17        -0.4790   -1.1060   -1.9690 o         1 MOL     -0.686429
    109 O18         0.4360   -2.2300   -3.5680 o         1 MOL     -0.686429
    110 H47         1.4320   -1.2820    0.2620 hn        1 MOL      0.261949
    111 H48         2.6690   -2.8600   -1.7270 h1        1 MOL      0.054408
    112 H49         2.4910   -0.7300   -3.1840 hc        1 MOL      0.077912
    113 H50         1.9020    0.0090   -1.7850 hc        1 MOL      0.077912
    114 N11         5.0350   -1.5020   -1.8950 n         1 MOL     -0.466084
    115 C36         6.4180   -1.1860   -1.5790 c3        1 MOL      0.235749
    116 C37         6.6260    0.2590   -0.9700 c         1 MOL      0.243606
    117 O19         7.2350    0.4090    0.0800 o         1 MOL     -0.453959
    118 C38         7.3690   -1.5820   -2.6930 c3        1 MOL     -0.225168
    119 C39         8.8730   -1.6690   -2.4070 ca        1 MOL      0.022821
    120 C40         9.3980   -2.5230   -1.4470 ca        1 MOL     -0.049945
    121 C41         9.6830   -0.7650   -3.0390 ca        1 MOL     -0.049945
    122 C42        10.7880   -2.6070   -1.2230 ca        1 MOL     -0.233838
    123 C43        11.0890   -0.7590   -2.8230 ca        1 MOL     -0.233838
    124 C44        11.6160   -1.6310   -1.8530 ca        1 MOL      0.000809
    125 H51         4.7400   -1.9520   -2.7410 hn        1 MOL      0.302802
    126 H52         6.7460   -1.8490   -0.7850 h1        1 MOL      0.068121
    127 H53         7.1740   -0.8780   -3.5100 hc        1 MOL      0.073280
    128 H54         7.0940   -2.5670   -3.0740 hc        1 MOL      0.073280
    129 H55         8.6930   -3.1260   -0.9000 ha        1 MOL      0.098316
    130 H56         9.3280    0.0310   -3.6770 ha        1 MOL      0.098316
    131 H57        11.1480   -3.2810   -0.4670 ha        1 MOL      0.140303
    132 H58        11.6910    0.0110   -3.2810 ha        1 MOL      0.140303
    133 H59        12.6650   -1.5790   -1.6130 ha        1 MOL      0.078148
    134 N12         6.0770    1.3350   -1.6200 n         1 MOL      0.046170
    135 C45         6.2830    2.7160   -1.0800 c3        1 MOL     -0.141096
    136 C46         5.7610    2.8360    0.3840 c         1 MOL      0.387403
    137 O20         6.2490    3.6350    1.2050 o         1 MOL     -0.497353
    138 C47         5.4740    3.6410   -2.0750 c3        1 MOL      0.025227
    139 C48         5.3630    2.8300   -3.3160 c3        1 MOL     -0.023683
    140 C49         5.4800    1.3580   -2.9400 c3        1 MOL     -0.069525
    141 H60         7.3430    2.9530   -1.0050 h1        1 MOL      0.084620
    142 H61         4.4410    3.7190   -1.7090 hc        1 MOL      0.027459
    143 H62         5.8370    4.6490   -2.2680 hc        1 MOL      0.027459
    144 H63         4.4460    2.9830   -3.8880 hc        1 MOL      0.020518
    145 H64         6.2220    3.0050   -3.9750 hc        1 MOL      0.020518
    146 H65         4.4930    0.8980   -2.8620 h1        1 MOL      0.035656
    147 H66         6.0030    0.7380   -3.6730 h1        1 MOL      0.035656
    148 N13         4.7400    2.0090    0.6510 n         1 MOL     -0.180510
    149 C50         4.0800    1.8890    1.9840 c3        1 MOL     -0.051723
    150 C51         4.9610    1.1020    3.0010 c         1 MOL      0.423895
    151 O21         5.3270    1.5530    4.0910 o         1 MOL     -0.547850
    152 C52         2.6660    1.2550    1.7020 c3        1 MOL      0.064454
    153 C53         1.8090    1.8850    0.5510 c3        1 MOL     -0.140068
    154 C54         0.3940    1.3130    0.6050 c         1 MOL      0.525074
    155 O22         0.2600    0.1560    1.0580 o         1 MOL     -0.667039
    156 O23        -0.5640    1.8460   -0.0420 o         1 MOL     -0.667039
    157 H67         4.4670    1.3130   -0.0220 hn        1 MOL      0.224045
    158 H68         3.8100    2.8600    2.4050 h1        1 MOL      0.081622
    159 H69         2.0710    1.3730    2.6050 hc        1 MOL     -0.016936
    160 H70         2.8350    0.2060    1.4220 hc        1 MOL     -0.016936
    161 H71         2.3310    1.6410   -0.3690 hc        1 MOL      0.044422
    162 H72         1.7220    2.9630    0.6520 hc        1 MOL      0.044422
    163 N14         5.5200   -0.0070    2.5130 n         1 MOL     -0.010679
    164 C55         6.5330   -0.7840    3.3010 c3        1 MOL     -0.352437
    165 H73         7.0530   -1.4770    2.6400 h1        1 MOL      0.116689
    166 H74         7.2530   -0.0970    3.7460 h1        1 MOL      0.116689
    167 H75         6.0290   -1.3440    4.0900 h1        1 MOL      0.116689
    168 H76         5.2520   -0.4000    1.6300 hn        1 MOL      0.079993
    169 Ca1        -2.1570   -0.1050   -0.3930 Ca        1 MOL      1.664120
    170 O24        -3.9720   -1.0860    1.4950 oh        1 MOL     -0.861915
    171 H77        -3.2830   -1.0230    2.1650 ho        1 MOL      0.426098
    172 H78        -4.7300   -0.6650    1.8930 ho        1 MOL      0.426098
    173 O25        -1.6110   -0.6900    2.7690 oh        1 MOL     -0.861915
    174 H79        -0.8520   -0.4700    2.2330 ho        1 MOL      0.426098
    175 H80        -1.4240   -0.3130    3.6300 ho        1 MOL      0.426098
@<TRIPOS>BOND
     1    1    2 1   
     2    1    4 1   
     3    1    5 1   
     4    1    6 1   
     5    2    3 2   
     6    2    7 1   
     7    7    8 1   
     8    7   15 1   
     9    8    9 1   
    10    8   11 1   
    11    8   16 1   
    12    9   10 2   
    13    9   19 1   
    14   11   12 1   
    15   11   17 1   
    16   11   18 1   
    17   12   13 1   
    18   12   14 1   
    19   19   20 1   
    20   19   24 1   
    21   20   21 1   
    22   20   23 1   
    23   20   25 1   
    24   21   22 2   
    25   21   29 1   
    26   23   26 1   
    27   23   27 1   
    28   23   28 1   
    29   29   30 1   
    30   29   37 1   
    31   30   31 1   
    32   30   33 1   
    33   30   38 1   
    34   31   32 2   
    35   31   41 1   
    36   33   34 1   
    37   33   39 1   
    38   33   40 1   
    39   34   35 1   
    40   34   36 1   
    41   41   42 1   
    42   41   45 1   
    43   42   43 1   
    44   42   46 1   
    45   42   47 1   
    46   43   44 2   
    47   43   48 1   
    48   48   49 1   
    49   48   56 1   
    50   49   50 1   
    51   49   52 1   
    52   49   57 1   
    53   50   51 2   
    54   50   62 1   
    55   52   53 1   
    56   52   58 1   
    57   52   59 1   
    58   53   54 1   
    59   53   55 2   
    60   54   60 1   
    61   54   61 1   
    62   62   63 1   
    63   62   66 1   
    64   63   64 1   
    65   63   67 1   
    66   63   68 1   
    67   64   65 2   
    68   64   69 1   
    69   69   70 1   
    70   69   76 1   
    71   70   71 1   
    72   70   73 1   
    73   70   77 1   
    74   71   72 2   
    75   71   83 1   
    76   73   74 1   
    77   73   75 1   
    78   73   78 1   
    79   74   80 1   
    80   74   81 1   
    81   74   82 1   
    82   75   79 1   
    83   83   84 1   
    84   83   91 1   
    85   84   85 1   
    86   84   87 1   
    87   84   92 1   
    88   85   86 2   
    89   85  102 1   
    90   87   88 1   
    91   87   89 1   
    92   87   93 1   
    93   88   90 1   
    94   88   94 1   
    95   88   95 1   
    96   89   96 1   
    97   89   97 1   
    98   89   98 1   
    99   90   99 1   
   100   90  100 1   
   101   90  101 1   
   102  102  103 1   
   103  102  110 1   
   104  103  104 1   
   105  103  106 1   
   106  103  111 1   
   107  104  105 2   
   108  104  114 1   
   109  106  107 1   
   110  106  112 1   
   111  106  113 1   
   112  107  108 1   
   113  107  109 1   
   114  114  115 1   
   115  114  125 1   
   116  115  116 1   
   117  115  118 1   
   118  115  126 1   
   119  116  117 2   
   120  116  134 1   
   121  118  119 1   
   122  118  127 1   
   123  118  128 1   
   124  119  120 ar  
   125  119  121 ar  
   126  120  122 ar  
   127  120  129 1   
   128  121  123 ar  
   129  121  130 1   
   130  122  124 ar  
   131  122  131 1   
   132  123  124 ar  
   133  123  132 1   
   134  124  133 1   
   135  134  135 1   
   136  134  140 1   
   137  135  136 1   
   138  135  138 1   
   139  135  141 1   
   140  136  137 2   
   141  136  148 1   
   142  138  139 1   
   143  138  142 1   
   144  138  143 1   
   145  139  140 1   
   146  139  144 1   
   147  139  145 1   
   148  140  146 1   
   149  140  147 1   
   150  148  149 1   
   151  148  157 1   
   152  149  150 1   
   153  149  152 1   
   154  149  158 1   
   155  150  151 2   
   156  150  163 1   
   157  152  153 1   
   158  152  159 1   
   159  152  160 1   
   160  153  154 1   
   161  153  161 1   
   162  153  162 1   
   163  154  155 1   
   164  154  156 1   
   165  163  164 1   
   166  163  168 1   
   167  164  165 1   
   168  164  166 1   
   169  164  167 1   
   170  170  171 1   
   171  170  172 1   
   172  173  174 1   
   173  173  175 1   
@<TRIPOS>SUBSTRUCTURE
     1 MOL         1 TEMP              0 ****  ****    0 ROOT
