@<TRIPOS>MOLECULE
MOL
  172   171     1     0     0
SMALL
resp


@<TRIPOS>ATOM
      1 C1          0.4400    4.0050    5.4170 c3        1 MOL     -0.428546
      2 C2         -0.0570    4.0330    3.9970 c         1 MOL      0.772302
      3 O1          0.6900    4.2310    3.0150 o         1 MOL     -0.561449
      4 H1          1.5030    4.2470    5.4350 hc        1 MOL      0.106803
      5 H2         -0.1090    4.7380    6.0090 hc        1 MOL      0.106803
      6 H3          0.2870    3.0110    5.8360 hc        1 MOL      0.106803
      7 N1         -1.3990    3.9480    3.8150 n         1 MOL     -0.659886
      8 C3         -2.0660    3.6060    2.5670 c3        1 MOL      0.239195
      9 C4         -2.3470    4.8360    1.7430 c         1 MOL      0.506841
     10 O2         -2.8480    5.8800    2.1690 o         1 MOL     -0.565105
     11 C5         -3.3960    2.9400    2.8430 c3        1 MOL     -0.316683
     12 C6         -4.1620    2.5300    1.5790 c         1 MOL      0.733333
     13 O3         -5.3800    2.7620    1.5170 o         1 MOL     -0.647963
     14 O4         -3.4390    2.0050    0.6830 o         1 MOL     -0.647963
     15 H4         -2.0090    3.7120    4.5890 hn        1 MOL      0.309842
     16 H5         -1.4560    2.9060    1.9860 h1        1 MOL      0.032416
     17 H6         -3.9780    3.6630    3.4150 hc        1 MOL      0.050440
     18 H7         -3.3010    2.0420    3.4600 hc        1 MOL      0.050440
     19 N2         -2.2980    4.6400    0.4090 n         1 MOL     -0.412570
     20 C7         -2.7590    5.5280   -0.6500 c3        1 MOL      0.311105
     21 C8         -3.8090    4.9310   -1.5920 c         1 MOL      0.449421
     22 O5         -4.3040    5.6850   -2.4020 o         1 MOL     -0.577833
     23 C9         -1.5600    5.9580   -1.4870 c3        1 MOL     -0.235195
     24 H8         -1.9160    3.7820    0.0290 hn        1 MOL      0.244823
     25 H9         -3.1460    6.3850   -0.1060 h1        1 MOL      0.008968
     26 H10        -0.6540    6.3100   -0.9820 hc        1 MOL      0.050158
     27 H11        -1.2100    5.0980   -2.0520 hc        1 MOL      0.050158
     28 H12        -1.9620    6.7110   -2.1690 hc        1 MOL      0.050158
     29 N3         -4.3310    3.6820   -1.5210 n         1 MOL     -0.375928
     30 C10        -5.1770    3.0940   -2.5920 c3        1 MOL      0.293297
     31 C11        -6.4170    2.3270   -2.1390 c         1 MOL      0.187502
     32 O6         -7.3780    2.1880   -2.9360 o         1 MOL     -0.526375
     33 C12        -4.2890    2.2290   -3.5130 c3        1 MOL     -0.375669
     34 C13        -3.5100    1.1420   -2.7560 c         1 MOL      0.782167
     35 O7         -2.2340    1.0620   -2.8710 o         1 MOL     -0.722833
     36 O8         -4.1290    0.4390   -1.9710 o         1 MOL     -0.722833
     37 H13        -3.9790    3.0490   -0.8190 hn        1 MOL      0.217645
     38 H14        -5.5270    3.9130   -3.2180 h1        1 MOL      0.059731
     39 H15        -3.6760    2.9450   -4.0480 hc        1 MOL      0.084519
     40 H16        -4.9690    1.7090   -4.1850 hc        1 MOL      0.084519
     41 N4         -6.4450    1.8200   -0.9090 n         1 MOL     -0.001935
     42 C14        -7.4660    0.8970   -0.3720 c3        1 MOL      0.008321
     43 C15        -7.5730   -0.5610   -0.9620 c         1 MOL      0.309125
     44 O9         -8.7060   -1.0700   -1.0420 o         1 MOL     -0.556150
     45 H17        -5.7260    2.0320   -0.2290 hn        1 MOL      0.048365
     46 H18        -8.4390    1.3900   -0.3350 h1        1 MOL      0.047247
     47 H19        -7.2800    0.7560    0.6960 h1        1 MOL      0.047247
     48 N5         -6.4490   -1.1300   -1.4440 n         1 MOL      0.000344
     49 C16        -6.3410   -2.5370   -1.8740 c3        1 MOL     -0.233394
     50 C17        -6.1750   -3.4980   -0.6790 c         1 MOL      0.541770
     51 O10        -6.1630   -4.6860   -0.9060 o         1 MOL     -0.506026
     52 C18        -5.1720   -2.6290   -2.9480 c3        1 MOL     -0.038037
     53 C19        -3.7230   -2.4870   -2.3970 c         1 MOL      0.593302
     54 N6         -2.7330   -2.6500   -3.1540 n         1 MOL     -0.617303
     55 O11        -3.4620   -2.2800   -1.2050 o         1 MOL     -0.600109
     56 H20        -5.6070   -0.5790   -1.3840 hn        1 MOL      0.152322
     57 H21        -7.2590   -2.8550   -2.3530 h1        1 MOL      0.144388
     58 H22        -5.3280   -1.9430   -3.7860 hc        1 MOL      0.040057
     59 H23        -5.2030   -3.6200   -3.3900 hc        1 MOL      0.040057
     60 H24        -2.8420   -2.7000   -4.1550 hn        1 MOL      0.324184
     61 H25        -1.8070   -2.4660   -2.8090 hn        1 MOL      0.324184
     62 N7         -6.1820   -3.0000    0.5650 n         1 MOL     -0.299273
     63 C20        -6.2060   -3.7800    1.8250 c3        1 MOL     -0.197135
     64 C21        -4.8750   -4.5030    2.1590 c         1 MOL      0.530657
     65 O12        -4.9170   -5.5610    2.8220 o         1 MOL     -0.557408
     66 H26        -6.2700   -1.9940    0.6770 hn        1 MOL      0.263957
     67 H27        -6.9340   -4.5850    1.8310 h1        1 MOL      0.103749
     68 H28        -6.4440   -3.0230    2.5720 h1        1 MOL      0.103749
     69 N8         -3.7930   -3.9320    1.6370 n         1 MOL     -0.234412
     70 C22        -2.3500   -4.4520    1.6360 c3        1 MOL     -0.355819
     71 C23        -1.3080   -3.3170    1.5770 c         1 MOL      0.658052
     72 O13        -1.4670   -2.2430    1.0000 o         1 MOL     -0.581487
     73 C24        -2.0440   -5.3200    0.4520 c3        1 MOL      0.621635
     74 C25        -2.6650   -6.6640    0.7520 c3        1 MOL     -0.561940
     75 O14        -2.4950   -4.7550   -0.7130 oh        1 MOL     -0.582366
     76 H29        -4.0170   -3.1130    1.1000 hn        1 MOL      0.156555
     77 H30        -2.1960   -4.9830    2.5780 h1        1 MOL      0.143826
     78 H31        -0.9590   -5.4430    0.3440 h1        1 MOL     -0.049478
     79 H32        -2.8310   -3.8820   -0.5100 ho        1 MOL      0.326334
     80 H33        -3.7470   -6.5730    0.7980 hc        1 MOL      0.137057
     81 H34        -2.5190   -7.3210   -0.1060 hc        1 MOL      0.137057
     82 H35        -2.2890   -7.1750    1.6270 hc        1 MOL      0.137057
     83 N9         -0.1230   -3.6020    2.1540 n         1 MOL     -0.531076
     84 C26         0.9940   -2.6120    2.0500 c3        1 MOL      0.027664
     85 C27         1.6820   -2.9080    0.7160 c         1 MOL      0.677671
     86 O15         2.1440   -4.0320    0.4380 o         1 MOL     -0.597407
     87 C28         1.9900   -2.7190    3.1520 c3        1 MOL     -0.003579
     88 C29         1.4180   -2.1740    4.5600 c3        1 MOL      0.074852
     89 C30         3.2010   -1.8150    2.8270 c3        1 MOL     -0.053964
     90 C31         2.2410   -2.6060    5.8200 c3        1 MOL     -0.150623
     91 H36         0.0030   -4.5130    2.5850 hn        1 MOL      0.289809
     92 H37         0.7690   -1.5450    2.0110 h1        1 MOL      0.092365
     93 H38         2.3070   -3.7500    3.2040 hc        1 MOL      0.024157
     94 H39         0.3780   -2.4800    4.6590 hc        1 MOL      0.001312
     95 H40         1.3250   -1.0940    4.6060 hc        1 MOL      0.001312
     96 H41         3.8610   -1.6940    3.6900 hc        1 MOL      0.002912
     97 H42         3.8080   -2.2190    2.0160 hc        1 MOL      0.002912
     98 H43         2.8240   -0.8200    2.5960 hc        1 MOL      0.002912
     99 H44         3.0040   -3.3420    5.5380 hc        1 MOL      0.028314
    100 H45         2.6940   -1.7430    6.2900 hc        1 MOL      0.028314
    101 H46         1.5280   -3.0910    6.4890 hc        1 MOL      0.028314
    102 N10         1.8450   -1.7950   -0.0550 n         1 MOL     -0.380710
    103 C32         2.6460   -1.8490   -1.2340 c3        1 MOL      0.106117
    104 C33         4.0610   -1.3460   -0.9500 c         1 MOL      0.462268
    105 O16         4.2980   -0.6650    0.0490 o         1 MOL     -0.194761
    106 C34         2.0280   -0.9810   -2.2890 c3        1 MOL     -0.312925
    107 C35         0.5740   -1.3990   -2.7370 c         1 MOL      0.718648
    108 O17         0.3810   -1.8150   -3.9040 o         1 MOL     -0.661929
    109 O18        -0.3930   -1.1860   -1.9420 o         1 MOL     -0.661929
    110 H47         1.6880   -0.9200    0.4280 hn        1 MOL     -0.011958
    111 H48         2.6450   -2.8630   -1.6400 h1        1 MOL      0.086418
    112 H49         2.7210   -0.9440   -3.1330 hc        1 MOL      0.096905
    113 H50         1.9040   -0.0010   -1.8410 hc        1 MOL      0.096905
    114 N11         5.1310   -1.7310   -1.7030 n         1 MOL     -0.801055
    115 C36         6.5140   -1.3340   -1.3840 c3        1 MOL      0.513541
    116 C37         6.7370    0.1540   -1.0820 c         1 MOL      0.080137
    117 O19         7.3520    0.6150   -0.0980 o         1 MOL     -0.429448
    118 C38         7.5390   -2.0850   -2.2400 c3        1 MOL     -0.264435
    119 C39         8.9720   -1.9780   -1.8400 ca        1 MOL      0.143174
    120 C40         9.9310   -1.7630   -2.8150 ca        1 MOL     -0.161877
    121 C41         9.3880   -2.1990   -0.5010 ca        1 MOL     -0.161877
    122 C42        11.3600   -1.6340   -2.4830 ca        1 MOL     -0.135259
    123 C43        10.7240   -1.9690   -0.1520 ca        1 MOL     -0.135259
    124 C44        11.7130   -1.7590   -1.1150 ca        1 MOL     -0.111156
    125 H51         4.9610   -2.3170   -2.5100 hn        1 MOL      0.368007
    126 H52         6.5570   -1.7180   -0.3720 h1        1 MOL      0.031348
    127 H53         7.3820   -1.8350   -3.2880 hc        1 MOL      0.075004
    128 H54         7.2360   -3.1360   -2.2670 hc        1 MOL      0.075004
    129 H55         9.6340   -1.5940   -3.8360 ha        1 MOL      0.110666
    130 H56         8.6640   -2.4040    0.2760 ha        1 MOL      0.110666
    131 H57        12.1140   -1.3240   -3.1970 ha        1 MOL      0.122842
    132 H58        10.9420   -1.8530    0.9010 ha        1 MOL      0.122842
    133 H59        12.7060   -1.5850   -0.7110 ha        1 MOL      0.105492
    134 N12         6.1660    1.0380   -1.9640 n         1 MOL      0.198279
    135 C45         6.2350    2.4810   -1.6520 c3        1 MOL     -0.051113
    136 C46         5.5430    2.9090   -0.3640 c         1 MOL      0.222220
    137 O20         5.9110    4.0170    0.1620 o         1 MOL     -0.493581
    138 C47         5.4310    3.1280   -2.8950 c3        1 MOL     -0.093781
    139 C48         5.9880    2.2280   -4.0220 c3        1 MOL     -0.220429
    140 C49         5.8490    0.8580   -3.3670 c3        1 MOL     -0.004288
    141 H60         7.2810    2.7950   -1.6450 h1        1 MOL      0.093416
    142 H61         4.3560    2.9180   -2.8950 hc        1 MOL      0.087152
    143 H62         5.6050    4.1710   -3.1300 hc        1 MOL      0.087152
    144 H63         5.2450    2.3770   -4.8060 hc        1 MOL      0.082370
    145 H64         7.0300    2.5070   -4.1980 hc        1 MOL      0.082370
    146 H65         4.8290    0.4680   -3.4300 h1        1 MOL      0.009611
    147 H66         6.6300    0.2220   -3.7960 h1        1 MOL      0.009611
    148 N13         4.5770    2.1090    0.1800 n         1 MOL     -0.000772
    149 C50         3.9430    2.4430    1.4630 c3        1 MOL     -0.143319
    150 C51         4.7600    1.8630    2.6970 c         1 MOL      0.424651
    151 O21         4.7900    2.4680    3.7730 o         1 MOL     -0.563049
    152 C52         2.4750    1.8800    1.4610 c3        1 MOL      0.003265
    153 C53         1.6430    2.3990    0.3190 c3        1 MOL     -0.124531
    154 C54         0.2960    1.7210    0.3090 c         1 MOL      0.716249
    155 O22        -0.6060    2.2410   -0.3510 o         1 MOL     -0.737640
    156 O23         0.0650    0.7220    1.0250 o         1 MOL     -0.737640
    157 H67         4.3190    1.2340   -0.2550 hn        1 MOL     -0.011493
    158 H68         3.9270    3.5220    1.6090 h1        1 MOL      0.132866
    159 H69         1.9260    2.1000    2.3800 hc        1 MOL      0.062694
    160 H70         2.6460    0.8130    1.3090 hc        1 MOL      0.062694
    161 H71         2.0980    2.1270   -0.6340 hc        1 MOL      0.055611
    162 H72         1.6220    3.4800    0.4890 hc        1 MOL      0.055611
    163 N14         5.3750    0.6750    2.6110 n         1 MOL      0.012059
    164 C55         6.3680    0.1730    3.5020 c3        1 MOL     -0.114162
    165 H73         6.5900    0.9250    4.2600 h1        1 MOL      0.048499
    166 H74         6.0000   -0.7320    3.9860 h1        1 MOL      0.048499
    167 H75         7.2760   -0.0560    2.9440 h1        1 MOL      0.048499
    168 H76         5.2080    0.1560    1.7590 hn        1 MOL      0.039301
    169 Ca1        -2.0560   -0.0280   -0.3170 Ca        1 MOL      1.708602
    170 O24        -3.9580   -0.7160    1.7480 oh        1 MOL     -0.863384
    171 H77        -4.8180   -0.6890    2.1760 ho        1 MOL      0.419723
    172 H78        -3.3280   -0.6000    2.4690 ho        1 MOL      0.419723
@<TRIPOS>BOND
     1    1    2 1   
     2    1    4 1   
     3    1    5 1   
     4    1    6 1   
     5    2    3 2   
     6    2    7 1   
     7    7    8 1   
     8    7   15 1   
     9    8    9 1   
    10    8   11 1   
    11    8   16 1   
    12    9   10 2   
    13    9   19 1   
    14   11   12 1   
    15   11   17 1   
    16   11   18 1   
    17   12   13 1   
    18   12   14 1   
    19   19   20 1   
    20   19   24 1   
    21   20   21 1   
    22   20   23 1   
    23   20   25 1   
    24   21   22 2   
    25   21   29 1   
    26   23   26 1   
    27   23   27 1   
    28   23   28 1   
    29   29   30 1   
    30   29   37 1   
    31   30   31 1   
    32   30   33 1   
    33   30   38 1   
    34   31   32 2   
    35   31   41 1   
    36   33   34 1   
    37   33   39 1   
    38   33   40 1   
    39   34   35 1   
    40   34   36 1   
    41   41   42 1   
    42   41   45 1   
    43   42   43 1   
    44   42   46 1   
    45   42   47 1   
    46   43   44 2   
    47   43   48 1   
    48   48   49 1   
    49   48   56 1   
    50   49   50 1   
    51   49   52 1   
    52   49   57 1   
    53   50   51 2   
    54   50   62 1   
    55   52   53 1   
    56   52   58 1   
    57   52   59 1   
    58   53   54 1   
    59   53   55 2   
    60   54   60 1   
    61   54   61 1   
    62   62   63 1   
    63   62   66 1   
    64   63   64 1   
    65   63   67 1   
    66   63   68 1   
    67   64   65 2   
    68   64   69 1   
    69   69   70 1   
    70   69   76 1   
    71   70   71 1   
    72   70   73 1   
    73   70   77 1   
    74   71   72 2   
    75   71   83 1   
    76   73   74 1   
    77   73   75 1   
    78   73   78 1   
    79   74   80 1   
    80   74   81 1   
    81   74   82 1   
    82   75   79 1   
    83   83   84 1   
    84   83   91 1   
    85   84   85 1   
    86   84   87 1   
    87   84   92 1   
    88   85   86 2   
    89   85  102 1   
    90   87   88 1   
    91   87   89 1   
    92   87   93 1   
    93   88   90 1   
    94   88   94 1   
    95   88   95 1   
    96   89   96 1   
    97   89   97 1   
    98   89   98 1   
    99   90   99 1   
   100   90  100 1   
   101   90  101 1   
   102  102  103 1   
   103  102  110 1   
   104  103  104 1   
   105  103  106 1   
   106  103  111 1   
   107  104  105 2   
   108  104  114 1   
   109  106  107 1   
   110  106  112 1   
   111  106  113 1   
   112  107  108 1   
   113  107  109 1   
   114  114  115 1   
   115  114  125 1   
   116  115  116 1   
   117  115  118 1   
   118  115  126 1   
   119  116  117 2   
   120  116  134 1   
   121  118  119 1   
   122  118  127 1   
   123  118  128 1   
   124  119  120 ar  
   125  119  121 ar  
   126  120  122 ar  
   127  120  129 1   
   128  121  123 ar  
   129  121  130 1   
   130  122  124 ar  
   131  122  131 1   
   132  123  124 ar  
   133  123  132 1   
   134  124  133 1   
   135  134  135 1   
   136  134  140 1   
   137  135  136 1   
   138  135  138 1   
   139  135  141 1   
   140  136  137 2   
   141  136  148 1   
   142  138  139 1   
   143  138  142 1   
   144  138  143 1   
   145  139  140 1   
   146  139  144 1   
   147  139  145 1   
   148  140  146 1   
   149  140  147 1   
   150  148  149 1   
   151  148  157 1   
   152  149  150 1   
   153  149  152 1   
   154  149  158 1   
   155  150  151 2   
   156  150  163 1   
   157  152  153 1   
   158  152  159 1   
   159  152  160 1   
   160  153  154 1   
   161  153  161 1   
   162  153  162 1   
   163  154  155 1   
   164  154  156 1   
   165  163  164 1   
   166  163  168 1   
   167  164  165 1   
   168  164  166 1   
   169  164  167 1   
   170  170  171 1   
   171  170  172 1   
@<TRIPOS>SUBSTRUCTURE
     1 MOL         1 TEMP              0 ****  ****    0 ROOT
