@<TRIPOS>MOLECULE
MOL
  179   176     1     0     0
SMALL
resp


@<TRIPOS>ATOM
      1 C1          1.8810    2.4680    5.9610 c3        1 MOL     -0.202617
      2 C2          1.1400    2.1170    4.6060 c         1 MOL      0.721303
      3 O1          1.8040    1.7790    3.6440 o         1 MOL     -0.608895
      4 H1          2.7500    1.8210    6.0770 hc        1 MOL      0.056609
      5 H2          2.2050    3.5080    5.9390 hc        1 MOL      0.056609
      6 H3          1.2000    2.3170    6.7990 hc        1 MOL      0.056609
      7 N1         -0.2040    2.2010    4.4190 n         1 MOL     -0.678122
      8 C3         -0.8080    2.0440    3.1030 c3        1 MOL      0.108199
      9 C4         -0.8580    3.4300    2.3780 c         1 MOL      0.602967
     10 O2         -1.6420    4.3060    2.6460 o         1 MOL     -0.552268
     11 C5         -2.1250    1.4100    3.2580 c3        1 MOL     -0.288899
     12 C6         -2.9380    1.2900    1.9380 c         1 MOL      0.741137
     13 O3         -2.4460    1.5110    0.8380 o         1 MOL     -0.716203
     14 O4         -4.1590    1.0630    2.0950 o         1 MOL     -0.716203
     15 H4         -0.7830    2.3350    5.2350 hn        1 MOL      0.353058
     16 H5         -0.2390    1.4260    2.3990 h1        1 MOL      0.083477
     17 H6         -2.7200    2.0200    3.9490 hc        1 MOL      0.075881
     18 H7         -2.0020    0.3740    3.5490 hc        1 MOL      0.075881
     19 N2         -0.0400    3.5700    1.3250 n         1 MOL     -0.305238
     20 C7          0.2530    4.7730    0.5530 c3        1 MOL     -0.275389
     21 C8         -0.8710    5.3160   -0.3510 c         1 MOL      0.599739
     22 O5         -1.0960    6.4790   -0.4450 o         1 MOL     -0.553518
     23 C9          1.5440    4.5330   -0.1500 c3        1 MOL      0.026637
     24 C10         2.1260    5.7930   -0.7520 c3        1 MOL     -0.157464
     25 C11         3.5320    5.4370   -1.3440 c3        1 MOL      0.134629
     26 C12         4.2500    6.7050   -1.9350 c3        1 MOL      0.062342
     27 N3          5.5110    6.3530   -2.6100 n4        1 MOL     -0.538286
     28 H8          0.5380    2.8090    0.9940 hn        1 MOL      0.219940
     29 H9          0.4210    5.4630    1.3700 h1        1 MOL      0.140592
     30 H10         1.2510    3.8320   -0.9280 hc        1 MOL      0.091598
     31 H11         2.2640    4.1250    0.5710 hc        1 MOL      0.091598
     32 H12         2.1980    6.5980   -0.0250 hc        1 MOL      0.047175
     33 H13         1.4500    6.1660   -1.5210 hc        1 MOL      0.047175
     34 H14         3.3480    4.7720   -2.1880 hc        1 MOL     -0.011927
     35 H15         4.1190    4.9520   -0.5600 hc        1 MOL     -0.011927
     36 H16         4.4360    7.3880   -1.1050 hx        1 MOL      0.079009
     37 H17         3.5550    7.2390   -2.5780 hx        1 MOL      0.079009
     38 H18         5.8650    7.2280   -2.9580 hn        1 MOL      0.378939
     39 H19         6.2110    6.0080   -1.9570 hn        1 MOL      0.378939
     40 H20         5.3170    5.6610   -3.3300 hn        1 MOL      0.378939
     41 N4         -1.7640    4.4440   -0.8560 n         1 MOL     -0.324996
     42 C13        -2.9470    4.7350   -1.7480 c3        1 MOL     -0.231186
     43 C14        -4.4110    4.3910   -1.2260 c         1 MOL      0.563742
     44 O6         -5.4110    4.4000   -1.9360 o         1 MOL     -0.550696
     45 C15        -2.7290    4.1730   -3.2240 c3        1 MOL      0.176867
     46 C16        -2.4120    2.6810   -3.2740 c         1 MOL      0.428050
     47 O7         -2.3050    2.1980   -4.4390 o         1 MOL     -0.656608
     48 O8         -2.5130    1.9230   -2.2720 o         1 MOL     -0.656608
     49 H21        -1.6220    3.4730   -0.6180 hn        1 MOL      0.201422
     50 H22        -3.0020    5.8190   -1.8750 h1        1 MOL      0.128269
     51 H23        -1.9760    4.7770   -3.7190 hc        1 MOL     -0.006604
     52 H24        -3.5620    4.5310   -3.8160 hc        1 MOL     -0.006604
     53 N5         -4.4160    4.0990    0.0520 n         1 MOL     -0.335907
     54 C17        -5.7280    3.7710    0.7660 c3        1 MOL     -0.280664
     55 C18        -6.4870    2.5040    0.1810 c         1 MOL      0.608957
     56 O9         -7.6970    2.3840    0.3960 o         1 MOL     -0.572437
     57 H25        -3.5290    3.9180    0.4980 hn        1 MOL      0.326746
     58 H26        -6.4220    4.6090    0.7220 h1        1 MOL      0.143071
     59 H27        -5.4840    3.5500    1.8040 h1        1 MOL      0.143071
     60 N6         -5.8070    1.7250   -0.7210 n         1 MOL     -0.332241
     61 C19        -6.4660    0.4820   -1.4240 c3        1 MOL     -0.028262
     62 C20        -6.8810   -0.5420   -0.3380 c         1 MOL      0.538160
     63 O10        -7.7340   -1.3340   -0.6460 o         1 MOL     -0.584496
     64 C21        -5.4410    0.0100   -2.5510 c3        1 MOL     -0.253281
     65 C22        -4.5370   -1.1590   -1.9390 c         1 MOL      0.454230
     66 N7         -4.6290   -2.4130   -2.4520 n         1 MOL     -0.701734
     67 O11        -3.7310   -0.8760   -1.0840 o         1 MOL     -0.645199
     68 H28        -4.8780    2.0070   -0.9900 hn        1 MOL      0.282608
     69 H29        -7.3520    0.9220   -1.8870 h1        1 MOL      0.113611
     70 H30        -4.7930    0.8090   -2.9000 hc        1 MOL      0.142123
     71 H31        -6.0640   -0.2790   -3.3950 hc        1 MOL      0.142123
     72 H32        -5.2290   -2.5710   -3.2470 hn        1 MOL      0.354516
     73 H33        -4.2790   -3.2590   -2.0140 hn        1 MOL      0.354516
     74 N8         -6.3560   -0.5400    0.8350 n         1 MOL     -0.164923
     75 C23        -6.6560   -1.5020    1.9110 c3        1 MOL     -0.172021
     76 C24        -5.5410   -2.5130    2.1870 c         1 MOL      0.559417
     77 O12        -5.8070   -3.5370    2.8550 o         1 MOL     -0.567489
     78 H34        -5.6220    0.1220    1.0520 hn        1 MOL      0.191248
     79 H35        -7.5520   -2.0810    1.6690 h1        1 MOL      0.115619
     80 H36        -6.8980   -1.1010    2.8900 h1        1 MOL      0.115619
     81 N9         -4.3290   -2.4200    1.5840 n         1 MOL     -0.470719
     82 C25        -3.2100   -3.3360    1.8650 c3        1 MOL      0.117152
     83 C26        -1.8450   -2.7150    1.6310 c         1 MOL      0.556734
     84 O13        -1.6060   -1.7730    0.8530 o         1 MOL     -0.636617
     85 C27        -3.4370   -4.7830    1.2120 c3        1 MOL     -0.185476
     86 C28        -3.5430   -5.0380   -0.3170 ca        1 MOL      0.088572
     87 C29        -2.4020   -4.7850   -1.1380 ca        1 MOL     -0.156108
     88 C30        -4.6900   -5.5400   -0.9130 ca        1 MOL     -0.156108
     89 C31        -2.3970   -5.0570   -2.5390 ca        1 MOL     -0.281680
     90 C32        -4.6480   -5.9050   -2.3050 ca        1 MOL     -0.281680
     91 C33        -3.5460   -5.5760   -3.0970 ca        1 MOL      0.331769
     92 O14        -3.6670   -5.6790   -4.4170 oh        1 MOL     -0.507590
     93 H37        -4.2930   -1.8190    0.7670 hn        1 MOL      0.403070
     94 H38        -3.2830   -3.5640    2.9330 h1        1 MOL      0.070372
     95 H39        -4.3280   -5.2400    1.6410 hc        1 MOL      0.068110
     96 H40        -2.5350   -5.2410    1.5940 hc        1 MOL      0.068110
     97 H41        -1.4750   -4.5380   -0.6540 ha        1 MOL      0.165776
     98 H42        -5.5770   -5.8400   -0.3600 ha        1 MOL      0.165776
     99 H43        -1.5330   -4.9290   -3.1620 ha        1 MOL      0.164583
    100 H44        -5.5320   -6.2980   -2.7910 ha        1 MOL      0.164583
    101 H45        -2.9200   -5.3910   -4.9410 ho        1 MOL      0.378850
    102 N10        -0.7990   -3.2630    2.2640 n         1 MOL     -0.450801
    103 C34         0.6140   -2.8290    2.0440 c3        1 MOL      0.068901
    104 C35         1.4630   -3.8070    1.1240 c         1 MOL      0.221186
    105 O15         1.4170   -5.1040    1.1550 o         1 MOL     -0.519672
    106 C36         1.3620   -2.6890    3.4040 c3        1 MOL      0.097799
    107 C37         0.5010   -1.9450    4.4900 c3        1 MOL      0.090542
    108 C38         2.7460   -2.0750    3.3490 c3        1 MOL     -0.407516
    109 C39         0.8160   -2.4710    5.8810 c3        1 MOL     -0.185064
    110 H46        -0.9640   -4.1120    2.7900 hn        1 MOL      0.299503
    111 H47         0.6260   -1.8720    1.5250 h1        1 MOL      0.090395
    112 H48         1.4950   -3.7080    3.7560 hc        1 MOL      0.035989
    113 H49        -0.5620   -2.1250    4.3580 hc        1 MOL     -0.001580
    114 H50         0.6740   -0.8630    4.4880 hc        1 MOL     -0.001580
    115 H51         3.1690   -1.9410    4.3440 hc        1 MOL      0.088133
    116 H52         3.3960   -2.7170    2.7460 hc        1 MOL      0.088133
    117 H53         2.7980   -1.1090    2.8520 hc        1 MOL      0.088133
    118 H54         0.5430   -3.5180    5.9560 hc        1 MOL      0.041164
    119 H55         1.8890   -2.4560    6.1090 hc        1 MOL      0.041164
    120 H56         0.2930   -1.8780    6.6300 hc        1 MOL      0.041164
    121 N11         2.3750   -3.2540    0.2860 n         1 MOL      0.073800
    122 C40         3.2150   -3.9750   -0.6480 c3        1 MOL     -0.087767
    123 C41         4.6410   -3.4150   -0.4170 c         1 MOL      0.335441
    124 O16         4.8280   -2.3870    0.2300 o         1 MOL     -0.356170
    125 C42         2.6990   -3.8430   -2.1010 c3        1 MOL      0.105699
    126 O17         2.6750   -2.4510   -2.4930 oh        1 MOL     -0.607236
    127 H57         2.4620   -2.2550    0.1370 hn        1 MOL      0.244023
    128 H58         3.2190   -5.0630   -0.5690 h1        1 MOL      0.072795
    129 H59         1.7200   -4.3120   -2.1890 h1        1 MOL      0.051119
    130 H60         3.4420   -4.2590   -2.7820 h1        1 MOL      0.051119
    131 H61         2.0750   -1.9350   -1.9470 ho        1 MOL      0.378134
    132 N12         5.6760   -4.0060   -1.0740 n         1 MOL     -0.404487
    133 C43         7.0630   -3.6520   -0.7550 c3        1 MOL      0.161625
    134 C44         7.4340   -2.2290   -1.1380 c         1 MOL      0.499559
    135 O18         8.1660   -1.7170   -0.3100 o         1 MOL     -0.529504
    136 C45         7.9560   -4.7490   -1.3930 c3        1 MOL     -0.626652
    137 H62         5.5730   -4.8450   -1.6290 hn        1 MOL      0.281668
    138 H63         7.1540   -3.8080    0.3210 h1        1 MOL      0.106373
    139 H64         7.6540   -4.7820   -2.4430 hc        1 MOL      0.188458
    140 H65         8.9870   -4.4460   -1.2440 hc        1 MOL      0.188458
    141 H66         7.7890   -5.6100   -0.7440 hc        1 MOL      0.188458
    142 N13         6.9590   -1.5370   -2.2070 n         1 MOL     -0.400520
    143 C46         7.4550   -0.1690   -2.4500 c3        1 MOL      0.095742
    144 C47         6.9000    0.8370   -1.4690 c         1 MOL      0.339216
    145 O19         7.3730    1.9640   -1.3090 o         1 MOL     -0.544138
    146 C48         7.0890    0.2230   -3.9320 c3        1 MOL     -0.291219
    147 H67         6.5170   -2.0620   -2.9550 hn        1 MOL      0.281132
    148 H68         8.5430   -0.1990   -2.3450 h1        1 MOL      0.102924
    149 H69         5.9950    0.2700   -3.9860 hc        1 MOL      0.089272
    150 H70         7.3880    1.2520   -4.1150 hc        1 MOL      0.089272
    151 H71         7.4650   -0.4870   -4.6730 hc        1 MOL      0.089272
    152 N14         5.8730    0.4620   -0.7880 n         1 MOL     -0.076840
    153 C49         5.2750    1.2720    0.3010 c3        1 MOL     -0.036627
    154 C50         6.0570    1.1840    1.6200 c         1 MOL      0.467582
    155 O20         6.2660    2.1550    2.3420 o         1 MOL     -0.535629
    156 C51         3.8220    0.8030    0.6200 c3        1 MOL      0.239104
    157 C52         3.0000    1.1480   -0.6270 c3        1 MOL     -0.104666
    158 C53         1.6020    0.5510   -0.3530 c         1 MOL      0.978684
    159 O21         0.6760    1.3470   -0.0420 o         1 MOL     -0.905750
    160 O22         1.2190   -0.6110   -0.6360 o         1 MOL     -0.905750
    161 H72         5.4620   -0.4250   -1.0410 hn        1 MOL      0.120434
    162 H73         5.2900    2.3130   -0.0270 h1        1 MOL      0.024935
    163 H74         3.4760    1.3180    1.5130 hc        1 MOL     -0.029010
    164 H75         3.8720   -0.2850    0.6230 hc        1 MOL     -0.029010
    165 H76         3.2660    0.6850   -1.5790 hc        1 MOL     -0.046260
    166 H77         2.9700    2.2320   -0.7730 hc        1 MOL     -0.046260
    167 N15         6.5170   -0.0650    1.8620 n         1 MOL     -0.130539
    168 C54         7.3250   -0.5660    3.0140 c3        1 MOL     -0.346223
    169 H78         7.8990   -1.4380    2.7010 h1        1 MOL      0.137424
    170 H79         8.0060    0.2160    3.3490 h1        1 MOL      0.137424
    171 H80         6.6600   -0.8440    3.8310 h1        1 MOL      0.137424
    172 H81         6.2520   -0.7970    1.2150 hn        1 MOL      0.110348
    173 Ca1        -1.2780   -0.0230   -1.0400 Ca        1 MOL      1.815609
    174 O23        -0.9640   -2.2320   -2.8420 oh        1 MOL     -0.808639
    175 H82        -1.6480   -1.7840   -3.3460 ho        1 MOL      0.399620
    176 H83        -0.5030   -2.7670   -3.4940 ho        1 MOL      0.399620
    177 O24         0.4750    1.0370   -3.0980 oh        1 MOL     -0.808639
    178 H84         1.0370    1.7720   -2.8560 ho        1 MOL      0.399620
    179 H85         0.3300    1.1350   -4.0420 ho        1 MOL      0.399620
@<TRIPOS>BOND
     1    1    2 1   
     2    1    4 1   
     3    1    5 1   
     4    1    6 1   
     5    2    3 2   
     6    2    7 1   
     7    7    8 1   
     8    7   15 1   
     9    8    9 1   
    10    8   11 1   
    11    8   16 1   
    12    9   10 2   
    13    9   19 1   
    14   11   12 1   
    15   11   17 1   
    16   11   18 1   
    17   12   13 1   
    18   12   14 1   
    19   19   20 1   
    20   19   28 1   
    21   20   21 1   
    22   20   23 1   
    23   20   29 1   
    24   21   22 2   
    25   21   41 1   
    26   23   24 1   
    27   23   30 1   
    28   23   31 1   
    29   24   25 1   
    30   24   32 1   
    31   24   33 1   
    32   25   26 1   
    33   25   34 1   
    34   25   35 1   
    35   26   27 1   
    36   26   36 1   
    37   26   37 1   
    38   27   38 1   
    39   27   39 1   
    40   27   40 1   
    41   41   42 1   
    42   41   49 1   
    43   42   43 1   
    44   42   45 1   
    45   42   50 1   
    46   43   44 2   
    47   43   53 1   
    48   45   46 1   
    49   45   51 1   
    50   45   52 1   
    51   46   47 1   
    52   46   48 1   
    53   53   54 1   
    54   53   57 1   
    55   54   55 1   
    56   54   58 1   
    57   54   59 1   
    58   55   56 2   
    59   55   60 1   
    60   60   61 1   
    61   60   68 1   
    62   61   62 1   
    63   61   64 1   
    64   61   69 1   
    65   62   63 2   
    66   62   74 1   
    67   64   65 1   
    68   64   70 1   
    69   64   71 1   
    70   65   66 1   
    71   65   67 2   
    72   66   72 1   
    73   66   73 1   
    74   74   75 1   
    75   74   78 1   
    76   75   76 1   
    77   75   79 1   
    78   75   80 1   
    79   76   77 2   
    80   76   81 1   
    81   81   82 1   
    82   81   93 1   
    83   82   83 1   
    84   82   85 1   
    85   82   94 1   
    86   83   84 2   
    87   83  102 1   
    88   85   86 1   
    89   85   95 1   
    90   85   96 1   
    91   86   87 ar  
    92   86   88 ar  
    93   87   89 ar  
    94   87   97 1   
    95   88   90 ar  
    96   88   98 1   
    97   89   91 ar  
    98   89   99 1   
    99   90   91 ar  
   100   90  100 1   
   101   91   92 1   
   102   92  101 1   
   103  102  103 1   
   104  102  110 1   
   105  103  104 1   
   106  103  106 1   
   107  103  111 1   
   108  104  105 2   
   109  104  121 1   
   110  106  107 1   
   111  106  108 1   
   112  106  112 1   
   113  107  109 1   
   114  107  113 1   
   115  107  114 1   
   116  108  115 1   
   117  108  116 1   
   118  108  117 1   
   119  109  118 1   
   120  109  119 1   
   121  109  120 1   
   122  121  122 1   
   123  121  127 1   
   124  122  123 1   
   125  122  125 1   
   126  122  128 1   
   127  123  124 2   
   128  123  132 1   
   129  125  126 1   
   130  125  129 1   
   131  125  130 1   
   132  126  131 1   
   133  132  133 1   
   134  132  137 1   
   135  133  134 1   
   136  133  136 1   
   137  133  138 1   
   138  134  135 2   
   139  134  142 1   
   140  136  139 1   
   141  136  140 1   
   142  136  141 1   
   143  142  143 1   
   144  142  147 1   
   145  143  144 1   
   146  143  146 1   
   147  143  148 1   
   148  144  145 2   
   149  144  152 1   
   150  146  149 1   
   151  146  150 1   
   152  146  151 1   
   153  152  153 1   
   154  152  161 1   
   155  153  154 1   
   156  153  156 1   
   157  153  162 1   
   158  154  155 2   
   159  154  167 1   
   160  156  157 1   
   161  156  163 1   
   162  156  164 1   
   163  157  158 1   
   164  157  165 1   
   165  157  166 1   
   166  158  159 1   
   167  158  160 1   
   168  167  168 1   
   169  167  172 1   
   170  168  169 1   
   171  168  170 1   
   172  168  171 1   
   173  174  175 1   
   174  174  176 1   
   175  177  178 1   
   176  177  179 1   
@<TRIPOS>SUBSTRUCTURE
     1 MOL         1 TEMP              0 ****  ****    0 ROOT
