@<TRIPOS>MOLECULE
MOL
  189   185     1     0     0
SMALL
resp


@<TRIPOS>ATOM
      1 C1         -0.7890    3.3040    5.8780 c3        1 MOL     -0.446064
      2 C2         -0.9260    2.9910    4.3620 c         1 MOL      0.632406
      3 O1         -0.1110    3.5780    3.6000 o         1 MOL     -0.542502
      4 H1         -1.4900    2.6880    6.4410 hc        1 MOL      0.116994
      5 H2          0.2290    3.0870    6.2040 hc        1 MOL      0.116994
      6 H3         -1.0090    4.3570    6.0540 hc        1 MOL      0.116994
      7 N1         -1.6890    1.9570    4.0190 n         1 MOL     -0.598738
      8 C3         -2.2170    1.6990    2.7200 c3        1 MOL      0.120533
      9 C4         -2.7970    2.9460    1.9990 c         1 MOL      0.595194
     10 O2         -3.7890    3.5750    2.5220 o         1 MOL     -0.589129
     11 C5         -3.3180    0.6290    2.6310 c3        1 MOL     -0.207700
     12 C6         -4.0240    0.4910    1.2570 c         1 MOL      0.657602
     13 O3         -5.2390    0.1980    1.3300 o         1 MOL     -0.592538
     14 O4         -3.3480    0.6870    0.2010 o         1 MOL     -0.592538
     15 H4         -2.1180    1.4550    4.7890 hn        1 MOL      0.356259
     16 H5         -1.3660    1.3820    2.1200 h1        1 MOL     -0.076862
     17 H6         -4.0700    0.7020    3.4120 hc        1 MOL      0.065276
     18 H7         -2.8180   -0.2950    2.9160 hc        1 MOL      0.065276
     19 N2         -2.2280    3.3860    0.8540 n         1 MOL     -0.318703
     20 C7         -2.6960    4.6700    0.2330 c3        1 MOL      0.207298
     21 C8         -3.6540    4.6150   -0.9760 c         1 MOL      0.367643
     22 O5         -3.9380    5.6490   -1.6370 o         1 MOL     -0.544624
     23 C9         -1.5270    5.6530    0.1150 c3        1 MOL     -0.087053
     24 C10        -1.0830    6.0800    1.5350 c3        1 MOL      0.114680
     25 C11         0.2740    6.6200    1.5540 c3        1 MOL     -0.171554
     26 C12         0.5380    7.1530    2.9710 c3        1 MOL      0.195702
     27 N3          1.9970    7.3340    3.1870 n4        1 MOL     -0.506136
     28 H8         -1.4180    2.9360    0.4700 hn        1 MOL      0.240082
     29 H9         -3.3400    5.2060    0.9330 h1        1 MOL      0.017260
     30 H10        -1.8380    6.5720   -0.3680 hc        1 MOL      0.026003
     31 H11        -0.7490    5.1450   -0.4710 hc        1 MOL      0.026003
     32 H12        -1.1840    5.2830    2.2680 hc        1 MOL      0.000468
     33 H13        -1.7970    6.8180    1.9070 hc        1 MOL      0.000468
     34 H14         0.4200    7.3350    0.7450 hc        1 MOL      0.040764
     35 H15         0.9970    5.8150    1.4450 hc        1 MOL      0.040764
     36 H16         0.1990    6.3530    3.6260 hx        1 MOL      0.046864
     37 H17        -0.0680    8.0320    3.1830 hx        1 MOL      0.046864
     38 H18         2.3720    8.0570    2.6060 hn        1 MOL      0.358562
     39 H19         2.2530    7.4500    4.1580 hn        1 MOL      0.358562
     40 H20         2.4410    6.4630    2.9130 hn        1 MOL      0.358562
     41 N4         -4.0630    3.4020   -1.3770 n         1 MOL     -0.163100
     42 C13        -4.7650    3.0180   -2.6470 c3        1 MOL     -0.150969
     43 C14        -6.2700    2.4640   -2.3550 c         1 MOL      0.555052
     44 O6         -7.1970    2.8380   -3.1030 o         1 MOL     -0.547005
     45 C15        -3.9660    1.8750   -3.3160 c3        1 MOL     -0.000017
     46 C16        -2.4420    1.9410   -3.1990 c         1 MOL      0.656349
     47 O7         -1.8260    0.9250   -2.9290 o         1 MOL     -0.700694
     48 O8         -1.8480    3.0220   -3.4790 o         1 MOL     -0.700694
     49 H21        -3.8410    2.6150   -0.7760 hn        1 MOL      0.086481
     50 H22        -4.8430    3.9090   -3.2740 h1        1 MOL      0.123410
     51 H23        -4.2070    1.8600   -4.3760 hc        1 MOL      0.010784
     52 H24        -4.4030    0.9780   -2.8710 hc        1 MOL      0.010784
     53 N5         -6.4900    1.7970   -1.1980 n         1 MOL     -0.399687
     54 C17        -7.7970    1.1270   -0.8420 c3        1 MOL     -0.025711
     55 C18        -7.7380   -0.3660   -1.3430 c         1 MOL      0.360368
     56 O9         -8.8110   -0.9750   -1.4090 o         1 MOL     -0.536183
     57 H25        -5.8070    1.7370   -0.4530 hn        1 MOL      0.241203
     58 H26        -8.7140    1.5860   -1.2210 h1        1 MOL      0.099395
     59 H27        -8.0250    1.2460    0.2110 h1        1 MOL      0.099395
     60 N6         -6.5570   -1.0030   -1.4450 n         1 MOL     -0.080060
     61 C19        -6.5660   -2.4300   -1.7400 c3        1 MOL     -0.091957
     62 C20        -6.5570   -3.1830   -0.4130 c         1 MOL      0.466358
     63 O10        -6.8250   -4.3670   -0.3920 o         1 MOL     -0.555917
     64 C21        -5.3670   -2.7470   -2.6600 c3        1 MOL     -0.201776
     65 C22        -4.0210   -2.2910   -2.1740 c         1 MOL      0.732864
     66 O11        -3.5720   -2.4290   -0.9950 o         1 MOL     -0.733776
     67 O12        -3.2690   -1.6490   -2.9690 o         1 MOL     -0.733776
     68 H28        -5.6930   -0.4680   -1.4000 hn        1 MOL      0.138270
     69 H29        -7.4550   -2.6470   -2.3180 h1        1 MOL      0.137249
     70 H30        -5.5840   -2.3190   -3.6380 hc        1 MOL      0.074901
     71 H31        -5.2550   -3.8240   -2.7810 hc        1 MOL      0.074901
     72 N7         -6.2680   -2.6100    0.7540 n         1 MOL     -0.141667
     73 C23        -6.1100   -3.2510    2.1200 c3        1 MOL     -0.220545
     74 C24        -4.7940   -3.9350    2.3760 c         1 MOL      0.588259
     75 O13        -4.6230   -4.6260    3.3890 o         1 MOL     -0.596834
     76 H32        -5.8370   -1.7000    0.6440 hn        1 MOL      0.080633
     77 H33        -6.8360   -4.0610    2.2460 h1        1 MOL      0.121547
     78 H34        -6.2220   -2.4900    2.8890 h1        1 MOL      0.121547
     79 N8         -3.8110   -3.8040    1.4940 n         1 MOL     -0.206351
     80 C25        -2.4580   -4.4490    1.5210 c3        1 MOL     -0.167542
     81 C26        -1.2940   -3.4350    1.3630 c         1 MOL      0.690408
     82 O14        -1.5330   -2.2580    1.0700 o         1 MOL     -0.634666
     83 C27        -2.2870   -5.5920    0.5330 c3        1 MOL      0.383303
     84 C28        -3.2650   -6.7540    0.5410 c3        1 MOL     -0.393399
     85 O15        -2.4980   -4.9630   -0.7240 oh        1 MOL     -0.649729
     86 H35        -4.0100   -3.2730    0.6590 hn        1 MOL      0.182859
     87 H36        -2.3640   -4.8880    2.5120 h1        1 MOL      0.086800
     88 H37        -1.3130   -6.0720    0.5270 h1        1 MOL      0.034726
     89 H38        -3.1070   -4.2370   -0.6560 ho        1 MOL      0.427018
     90 H39        -3.0650   -7.4410    1.3680 hc        1 MOL      0.103898
     91 H40        -4.2710   -6.3680    0.4170 hc        1 MOL      0.103898
     92 H41        -2.9700   -7.3220   -0.3480 hc        1 MOL      0.103898
     93 N9         -0.0300   -3.8580    1.7120 n         1 MOL     -0.667659
     94 C29         1.1970   -3.0110    1.7820 c3        1 MOL      0.529064
     95 C30         2.2270   -3.6190    0.8860 c         1 MOL      0.352939
     96 O16         2.3380   -4.8480    0.7780 o         1 MOL     -0.519734
     97 C31         1.6460   -2.9020    3.2470 c3        1 MOL      0.007698
     98 C32         0.6680   -2.1120    4.1270 c3        1 MOL     -0.352457
     99 C33         3.0170   -2.2190    3.4430 c3        1 MOL     -0.072846
    100 C34         0.3890   -0.6470    3.8860 c3        1 MOL      0.170740
    101 H42         0.0840   -4.8450    1.8690 hn        1 MOL      0.266769
    102 H43         0.9130   -2.0210    1.4370 h1        1 MOL     -0.139267
    103 H44         1.7560   -3.9280    3.5840 hc        1 MOL      0.037324
    104 H45         1.1150   -2.1250    5.1220 hc        1 MOL      0.084922
    105 H46        -0.2770   -2.6350    4.0740 hc        1 MOL      0.084922
    106 H47         3.4050   -2.0420    4.4420 hc        1 MOL      0.002213
    107 H48         3.7270   -2.9390    3.0200 hc        1 MOL      0.002213
    108 H49         3.1510   -1.2930    2.8870 hc        1 MOL      0.002213
    109 H50        -0.5950   -0.4930    4.3260 hc        1 MOL      0.016480
    110 H51         1.1110   -0.0550    4.4510 hc        1 MOL      0.016480
    111 H52         0.4280   -0.4220    2.8190 hc        1 MOL      0.016480
    112 N10         3.1260   -2.8150    0.3090 n         1 MOL     -0.198272
    113 C35         4.1370   -3.1770   -0.7500 c3        1 MOL      0.003160
    114 C36         5.4740   -2.4390   -0.4700 c         1 MOL      0.247851
    115 O17         5.6120   -1.6390    0.5290 o         1 MOL     -0.362842
    116 C37         3.6380   -2.8910   -2.1600 c3        1 MOL      0.125236
    117 C38         2.5400   -3.9080   -2.5750 c3        1 MOL     -0.241686
    118 O18         3.1310   -1.6220   -2.3120 oh        1 MOL     -0.554674
    119 H53         3.0640   -1.8110    0.4170 hn        1 MOL      0.229590
    120 H54         4.3080   -4.2540   -0.6380 h1        1 MOL      0.105955
    121 H55         4.5140   -3.0610   -2.7830 h1        1 MOL      0.093276
    122 H56         2.3610   -1.5800   -1.7360 ho        1 MOL      0.354771
    123 H57         2.9250   -4.9190   -2.6810 hc        1 MOL      0.071725
    124 H58         1.6990   -3.8370   -1.8790 hc        1 MOL      0.071725
    125 H59         2.2650   -3.6930   -3.6020 hc        1 MOL      0.071725
    126 N11         6.5490   -2.4670   -1.3340 n         1 MOL     -0.137551
    127 C39         7.8990   -1.9170   -0.9930 c3        1 MOL      0.008048
    128 C40         7.7750   -0.3650   -0.7440 c         1 MOL      0.453505
    129 O19         8.2650    0.2830    0.2190 o         1 MOL     -0.503345
    130 C41         8.8380   -2.4560   -1.9900 c3        1 MOL      0.414808
    131 C42        10.2160   -2.4970   -1.4250 c3        1 MOL     -0.432415
    132 O20         8.6780   -3.7770   -2.5700 oh        1 MOL     -0.618480
    133 H60         6.4850   -3.0170   -2.1790 hn        1 MOL      0.147239
    134 H61         8.1220   -2.1700    0.0460 h1        1 MOL      0.075359
    135 H62         8.8340   -1.7010   -2.7690 h1        1 MOL     -0.043968
    136 H63         9.3930   -3.9210   -3.1940 ho        1 MOL      0.400752
    137 H64        11.0240   -2.5130   -2.1570 hc        1 MOL      0.115978
    138 H65        10.4570   -1.5350   -0.9760 hc        1 MOL      0.115978
    139 H66        10.2200   -3.3760   -0.7770 hc        1 MOL      0.115978
    140 N12         7.0260    0.2500   -1.6650 n         1 MOL     -0.410208
    141 C43         6.4720    1.6500   -1.6810 c3        1 MOL      0.146402
    142 C44         5.7920    2.0230   -0.4090 c         1 MOL      0.442000
    143 O21         5.8730    3.1940   -0.0610 o         1 MOL     -0.580407
    144 C45         5.4080    1.6730   -2.8190 c3        1 MOL     -0.251972
    145 C46         4.4330    2.8190   -2.9230 c3        1 MOL      0.324642
    146 C47         4.1830    3.0990   -4.3820 c3        1 MOL     -0.050955
    147 C48         3.2660    4.3060   -4.5450 c3        1 MOL      0.118390
    148 N13         2.6760    4.3570   -5.9170 n4        1 MOL     -0.273860
    149 H67         6.6880   -0.2980   -2.4420 hn        1 MOL      0.206133
    150 H68         7.1870    2.4600   -1.7900 h1        1 MOL      0.076104
    151 H69         4.8030    0.7700   -2.8750 hc        1 MOL      0.063283
    152 H70         6.0630    1.6910   -3.6920 hc        1 MOL      0.063283
    153 H71         4.7800    3.7870   -2.5590 hc        1 MOL     -0.065468
    154 H72         3.5630    2.4830   -2.3730 hc        1 MOL     -0.065468
    155 H73         3.7160    2.1750   -4.7430 hc        1 MOL      0.002911
    156 H74         5.1000    3.3440   -4.9240 hc        1 MOL      0.002911
    157 H75         3.8710    5.1870   -4.3310 hx        1 MOL      0.057177
    158 H76         2.4620    4.2330   -3.8210 hx        1 MOL      0.057177
    159 H77         3.4320    4.4630   -6.5770 hn        1 MOL      0.300203
    160 H78         2.1640    3.5370   -6.2020 hn        1 MOL      0.300203
    161 H79         2.1130    5.1980   -5.9770 hn        1 MOL      0.300203
    162 N14         5.3290    1.1230    0.4540 n         1 MOL     -0.091013
    163 C49         4.5940    1.4520    1.7260 c3        1 MOL     -0.155423
    164 C50         5.3320    0.9540    3.0010 c         1 MOL      0.540686
    165 O22         5.3000    1.6420    4.0310 o         1 MOL     -0.551232
    166 C51         3.1360    0.9100    1.4810 c3        1 MOL      0.171509
    167 C52         2.2540    1.6080    0.4070 c3        1 MOL     -0.146399
    168 C53         1.0190    0.8010    0.0160 c         1 MOL      0.923599
    169 O23         1.0250   -0.3950   -0.3810 o         1 MOL     -0.784035
    170 O24        -0.0790    1.3770   -0.0530 o         1 MOL     -0.784035
    171 H80         5.3320    0.1380    0.2200 hn        1 MOL      0.085497
    172 H81         4.4980    2.5240    1.8460 h1        1 MOL      0.097820
    173 H82         2.4920    0.8290    2.3510 hc        1 MOL     -0.040713
    174 H83         3.3040   -0.1060    1.1060 hc        1 MOL     -0.040713
    175 H84         2.8060    1.7140   -0.5260 hc        1 MOL      0.011621
    176 H85         1.9320    2.5970    0.7380 hc        1 MOL      0.011621
    177 N15         6.1000   -0.1150    2.9510 n         1 MOL     -0.250989
    178 C54         6.5260   -0.9770    4.0680 c3        1 MOL     -0.258634
    179 H86         5.6470   -1.3830    4.5690 h1        1 MOL      0.117707
    180 H87         7.1350   -1.7960    3.6850 h1        1 MOL      0.117707
    181 H88         7.1100   -0.3910    4.7780 h1        1 MOL      0.117707
    182 H89         6.2900   -0.5960    2.0850 hn        1 MOL      0.195222
    183 Ca1        -1.5060   -0.7320   -1.0730 Ca        1 MOL      1.701242
    184 O25         0.1450   -0.9240   -3.3090 oh        1 MOL     -0.751755
    185 H90         0.4480   -0.0460   -3.5180 ho        1 MOL      0.375929
    186 H91         0.4010   -1.4600   -4.0680 ho        1 MOL      0.375929
    187 O26        -0.7450   -3.1590   -1.8400 oh        1 MOL     -0.751755
    188 H92        -1.0660   -4.0590   -1.9220 ho        1 MOL      0.375929
    189 H93        -0.0630   -3.0830   -2.5030 ho        1 MOL      0.375929
@<TRIPOS>BOND
     1    1    2 1   
     2    1    4 1   
     3    1    5 1   
     4    1    6 1   
     5    2    3 2   
     6    2    7 1   
     7    7    8 1   
     8    7   15 1   
     9    8    9 1   
    10    8   11 1   
    11    8   16 1   
    12    9   10 2   
    13    9   19 1   
    14   11   12 1   
    15   11   17 1   
    16   11   18 1   
    17   12   13 1   
    18   12   14 1   
    19   19   20 1   
    20   19   28 1   
    21   20   21 1   
    22   20   23 1   
    23   20   29 1   
    24   21   22 2   
    25   21   41 1   
    26   23   24 1   
    27   23   30 1   
    28   23   31 1   
    29   24   25 1   
    30   24   32 1   
    31   24   33 1   
    32   25   26 1   
    33   25   34 1   
    34   25   35 1   
    35   26   27 1   
    36   26   36 1   
    37   26   37 1   
    38   27   38 1   
    39   27   39 1   
    40   27   40 1   
    41   41   42 1   
    42   41   49 1   
    43   42   43 1   
    44   42   45 1   
    45   42   50 1   
    46   43   44 2   
    47   43   53 1   
    48   45   46 1   
    49   45   51 1   
    50   45   52 1   
    51   46   47 1   
    52   46   48 1   
    53   53   54 1   
    54   53   57 1   
    55   54   55 1   
    56   54   58 1   
    57   54   59 1   
    58   55   56 2   
    59   55   60 1   
    60   60   61 1   
    61   60   68 1   
    62   61   62 1   
    63   61   64 1   
    64   61   69 1   
    65   62   63 2   
    66   62   72 1   
    67   64   65 1   
    68   64   70 1   
    69   64   71 1   
    70   65   66 1   
    71   65   67 1   
    72   72   73 1   
    73   72   76 1   
    74   73   74 1   
    75   73   77 1   
    76   73   78 1   
    77   74   75 2   
    78   74   79 1   
    79   79   80 1   
    80   79   86 1   
    81   80   81 1   
    82   80   83 1   
    83   80   87 1   
    84   81   82 2   
    85   81   93 1   
    86   83   84 1   
    87   83   85 1   
    88   83   88 1   
    89   84   90 1   
    90   84   91 1   
    91   84   92 1   
    92   85   89 1   
    93   93   94 1   
    94   93  101 1   
    95   94   95 1   
    96   94   97 1   
    97   94  102 1   
    98   95   96 2   
    99   95  112 1   
   100   97   98 1   
   101   97   99 1   
   102   97  103 1   
   103   98  100 1   
   104   98  104 1   
   105   98  105 1   
   106   99  106 1   
   107   99  107 1   
   108   99  108 1   
   109  100  109 1   
   110  100  110 1   
   111  100  111 1   
   112  112  113 1   
   113  112  119 1   
   114  113  114 1   
   115  113  116 1   
   116  113  120 1   
   117  114  115 2   
   118  114  126 1   
   119  116  117 1   
   120  116  118 1   
   121  116  121 1   
   122  117  123 1   
   123  117  124 1   
   124  117  125 1   
   125  118  122 1   
   126  126  127 1   
   127  126  133 1   
   128  127  128 1   
   129  127  130 1   
   130  127  134 1   
   131  128  129 2   
   132  128  140 1   
   133  130  131 1   
   134  130  132 1   
   135  130  135 1   
   136  131  137 1   
   137  131  138 1   
   138  131  139 1   
   139  132  136 1   
   140  140  141 1   
   141  140  149 1   
   142  141  142 1   
   143  141  144 1   
   144  141  150 1   
   145  142  143 2   
   146  142  162 1   
   147  144  145 1   
   148  144  151 1   
   149  144  152 1   
   150  145  146 1   
   151  145  153 1   
   152  145  154 1   
   153  146  147 1   
   154  146  155 1   
   155  146  156 1   
   156  147  148 1   
   157  147  157 1   
   158  147  158 1   
   159  148  159 1   
   160  148  160 1   
   161  148  161 1   
   162  162  163 1   
   163  162  171 1   
   164  163  164 1   
   165  163  166 1   
   166  163  172 1   
   167  164  165 2   
   168  164  177 1   
   169  166  167 1   
   170  166  173 1   
   171  166  174 1   
   172  167  168 1   
   173  167  175 1   
   174  167  176 1   
   175  168  169 1   
   176  168  170 1   
   177  177  178 1   
   178  177  182 1   
   179  178  179 1   
   180  178  180 1   
   181  178  181 1   
   182  184  185 1   
   183  184  186 1   
   184  187  188 1   
   185  187  189 1   
@<TRIPOS>SUBSTRUCTURE
     1 MOL         1 TEMP              0 ****  ****    0 ROOT
