@<TRIPOS>MOLECULE
MOL
  189   185     1     0     0
SMALL
resp


@<TRIPOS>ATOM
      1 C1         -0.6050   -4.1140    5.9670 c3        1 MOL     -0.367060
      2 C2         -0.1550   -3.8300    4.5400 c         1 MOL      0.724362
      3 O1         -0.9610   -3.5530    3.6210 o         1 MOL     -0.593418
      4 H1         -1.0930   -3.2300    6.3760 hc        1 MOL      0.088444
      5 H2         -1.3070   -4.9490    5.9680 hc        1 MOL      0.088444
      6 H3          0.2620   -4.3670    6.5790 hc        1 MOL      0.088444
      7 N1          1.1310   -4.0700    4.3050 n         1 MOL     -0.645611
      8 C3          1.8220   -3.6560    3.1300 c3        1 MOL      0.415722
      9 C4          2.0610   -4.7520    2.0340 c         1 MOL      0.457396
     10 O2          2.3640   -5.9020    2.3820 o         1 MOL     -0.595083
     11 C5          3.1150   -3.0310    3.6190 c3        1 MOL     -0.567944
     12 C6          3.9570   -2.4360    2.4930 c         1 MOL      0.985746
     13 O3          5.1540   -2.2780    2.8000 o         1 MOL     -0.763104
     14 O4          3.5430   -2.2360    1.3540 o         1 MOL     -0.763104
     15 H4          1.6460   -4.3630    5.1160 hn        1 MOL      0.325391
     16 H5          1.2230   -2.9710    2.5180 h1        1 MOL      0.017303
     17 H6          3.7150   -3.8600    3.9870 hc        1 MOL      0.104297
     18 H7          2.8990   -2.2090    4.2890 hc        1 MOL      0.104297
     19 N2          1.9370   -4.4940    0.7150 n         1 MOL     -0.082707
     20 C7          1.9500   -5.4760   -0.3580 c3        1 MOL     -0.132715
     21 C8          3.1480   -5.3000   -1.2770 c         1 MOL      0.455263
     22 O5          3.5240   -6.2700   -1.9650 o         1 MOL     -0.592755
     23 C9          0.6370   -5.4150   -1.2480 c3        1 MOL      0.105087
     24 C10         0.5440   -4.1420   -2.1490 c3        1 MOL      0.056837
     25 C11        -0.5820   -5.5690   -0.3380 c3        1 MOL     -0.201608
     26 C12        -0.6860   -4.1380   -3.0970 c3        1 MOL     -0.393167
     27 H8          1.7890   -3.5550    0.3830 hn        1 MOL      0.065983
     28 H9          1.9580   -6.4910    0.0320 h1        1 MOL      0.116079
     29 H10         0.6940   -6.2860   -1.9090 hc        1 MOL     -0.014180
     30 H11         1.3900   -3.9210   -2.7950 hc        1 MOL      0.068485
     31 H12         0.4360   -3.2640   -1.5050 hc        1 MOL      0.068485
     32 H13        -0.2810   -6.3610    0.3370 hc        1 MOL      0.052498
     33 H14        -0.7100   -4.6550    0.2450 hc        1 MOL      0.052498
     34 H15        -1.5030   -5.8380   -0.8650 hc        1 MOL      0.052498
     35 H16        -1.6010   -4.3830   -2.5540 hc        1 MOL      0.091934
     36 H17        -0.7430   -3.1700   -3.5820 hc        1 MOL      0.091934
     37 H18        -0.3850   -4.8000   -3.9100 hc        1 MOL      0.091934
     38 N3          3.8200   -4.2100   -1.2910 n         1 MOL     -0.277209
     39 C13         4.8360   -3.9540   -2.3500 c3        1 MOL      0.011121
     40 C14         6.0780   -3.1710   -1.8790 c         1 MOL      0.452578
     41 O6          7.0370   -3.2810   -2.6260 o         1 MOL     -0.570197
     42 C15         4.1580   -3.1340   -3.4770 c3        1 MOL     -0.122438
     43 C16         3.5170   -1.8320   -3.0970 c         1 MOL      0.778493
     44 O7          3.8510   -1.1970   -2.0630 o         1 MOL     -0.708350
     45 O8          2.5860   -1.4230   -3.8000 o         1 MOL     -0.708350
     46 H19         3.4720   -3.4080   -0.7690 hn        1 MOL      0.152146
     47 H20         5.1980   -4.8740   -2.8010 h1        1 MOL      0.110580
     48 H21         3.4130   -3.7450   -3.9840 hc        1 MOL      0.027733
     49 H22         4.9190   -2.8610   -4.2110 hc        1 MOL      0.027733
     50 N4          6.1850   -2.4930   -0.7250 n         1 MOL     -0.097679
     51 C17         7.5010   -2.0580   -0.1250 c3        1 MOL     -0.328618
     52 C18         7.8430   -0.6830   -0.6210 c         1 MOL      0.562049
     53 O9          8.9810   -0.2040   -0.4290 o         1 MOL     -0.628358
     54 H23         5.4100   -2.5990   -0.0760 hn        1 MOL      0.117375
     55 H24         8.3180   -2.7280   -0.3890 h1        1 MOL      0.150967
     56 H25         7.3020   -1.9940    0.9450 h1        1 MOL      0.150967
     57 N5          6.9140   -0.0050   -1.3140 n         1 MOL     -0.182375
     58 C19         7.1070    1.3010   -1.9590 c3        1 MOL      0.095452
     59 C20         7.1280    2.4270   -0.9830 c         1 MOL      0.302708
     60 O10         7.0960    3.5890   -1.4640 o         1 MOL     -0.494564
     61 C21         6.0560    1.5890   -3.0490 c3        1 MOL     -0.414908
     62 C22         4.6500    1.9090   -2.5130 c         1 MOL      0.896445
     63 O11         4.3690    1.6830   -1.3290 o         1 MOL     -0.735412
     64 O12         3.8250    2.3470   -3.3080 o         1 MOL     -0.735412
     65 H26         5.9810   -0.3610   -1.3890 hn        1 MOL      0.063861
     66 H27         8.0460    1.2260   -2.5170 h1        1 MOL      0.089616
     67 H28         5.7860    0.6430   -3.5330 hc        1 MOL      0.118272
     68 H29         6.3630    2.3980   -3.7080 hc        1 MOL      0.118272
     69 N6          7.0900    2.3000    0.3590 n         1 MOL     -0.151972
     70 C23         7.0410    3.4050    1.3590 c3        1 MOL     -0.277451
     71 C24         5.8000    4.2320    1.5770 c         1 MOL      0.558710
     72 O13         5.8490    5.0500    2.5210 o         1 MOL     -0.586393
     73 H30         7.1410    1.3570    0.7130 hn        1 MOL      0.205696
     74 H31         7.8230    4.1010    1.0630 h1        1 MOL      0.120898
     75 H32         7.4000    2.9290    2.2730 h1        1 MOL      0.120898
     76 N7          4.6510    4.0220    0.8970 n         1 MOL     -0.091341
     77 C25         3.3760    4.6160    1.3130 c3        1 MOL      0.078095
     78 C26         2.1990    3.6190    1.2800 c         1 MOL      0.421700
     79 O14         2.2550    2.6110    0.5500 o         1 MOL     -0.513364
     80 C27         3.1320    5.8020    0.3730 c3        1 MOL     -0.458837
     81 C28         3.0590    5.3450   -1.0950 c3        1 MOL     -0.046598
     82 C29         2.8010    6.5630   -2.1070 c         1 MOL      0.657437
     83 N8          2.3150    6.2770   -3.2740 n         1 MOL     -0.745194
     84 O15         3.0280    7.7320   -1.8610 o         1 MOL     -0.589832
     85 H33         4.6750    3.2260    0.2770 hn        1 MOL      0.053317
     86 H34         3.4810    4.9540    2.3490 h1        1 MOL      0.018820
     87 H35         3.9360    6.5230    0.5230 hc        1 MOL      0.141629
     88 H36         2.1620    6.2090    0.6800 hc        1 MOL      0.141629
     89 H37         2.2990    4.5710   -1.1990 hc        1 MOL      0.069946
     90 H38         3.9730    4.8470   -1.4040 hc        1 MOL      0.069946
     91 H39         1.8360    5.4010   -3.4300 hn        1 MOL      0.340361
     92 H40         2.1940    7.0010   -3.9600 hn        1 MOL      0.340361
     93 N9          1.1000    4.0050    1.9720 n         1 MOL     -0.256134
     94 C30        -0.1540    3.2570    2.0900 c3        1 MOL     -0.374048
     95 C31        -1.2060    3.4870    1.0270 c         1 MOL      0.622672
     96 O16        -1.8190    4.5470    1.0060 o         1 MOL     -0.599190
     97 C32        -0.7700    3.4850    3.5020 c3        1 MOL      0.206086
     98 C33        -2.0740    2.6410    3.7910 c3        1 MOL     -0.163663
     99 C34         0.3200    3.2830    4.6380 c3        1 MOL     -0.163663
    100 H41         1.1780    4.8420    2.5180 hn        1 MOL      0.277136
    101 H42         0.0710    2.2030    2.0080 h1        1 MOL      0.333869
    102 H43        -1.1650    4.4790    3.7450 hc        1 MOL     -0.003835
    103 H44        -1.6980    1.6290    3.6420 hc        1 MOL      0.025516
    104 H45        -2.4440    2.8560    4.7920 hc        1 MOL      0.025516
    105 H46        -2.8610    2.9300    3.1020 hc        1 MOL      0.025516
    106 H47         0.9400    2.4150    4.4210 hc        1 MOL      0.025516
    107 H48         1.0030    4.1390    4.6490 hc        1 MOL      0.025516
    108 H49        -0.0120    3.1880    5.6750 hc        1 MOL      0.025516
    109 N10        -1.3180    2.5830    0.0750 n         1 MOL     -0.166852
    110 C35        -2.3380    2.4550   -0.9700 c3        1 MOL     -0.010301
    111 C36        -3.7040    2.4140   -0.3480 c         1 MOL      0.295882
    112 O17        -3.8340    2.0100    0.7430 o         1 MOL     -0.306857
    113 C37        -1.9740    1.2070   -1.8880 c3        1 MOL     -0.402121
    114 C38        -2.9980    0.8040   -2.9030 c         1 MOL      0.755529
    115 N11        -3.3570    1.6580   -3.8660 n         1 MOL     -0.820162
    116 O18        -3.4980   -0.2780   -2.8140 o         1 MOL     -0.500623
    117 H50        -0.8240    1.7150    0.2150 hn        1 MOL      0.112698
    118 H51        -2.3930    3.3770   -1.5450 h1        1 MOL      0.039867
    119 H52        -1.8790    0.3380   -1.2400 hc        1 MOL      0.161819
    120 H53        -1.0180    1.2410   -2.4090 hc        1 MOL      0.161819
    121 H54        -3.0030    2.6040   -3.7810 hn        1 MOL      0.359933
    122 H55        -4.0640    1.4640   -4.5640 hn        1 MOL      0.359933
    123 N12        -4.7740    2.6070   -1.1080 n         1 MOL     -0.229097
    124 C39        -6.1370    2.4140   -0.6370 c3        1 MOL      0.062504
    125 C40        -6.4370    1.0480   -0.0930 c         1 MOL      0.654707
    126 O19        -6.9110    0.9030    0.9870 o         1 MOL     -0.598147
    127 C41        -7.1270    2.7650   -1.7200 c3        1 MOL     -0.178279
    128 C42        -8.5030    2.3770   -1.2720 ca        1 MOL     -0.037719
    129 C43        -9.2010    3.0700   -0.2580 ca        1 MOL     -0.136018
    130 C44        -9.0220    1.2050   -1.7780 ca        1 MOL     -0.136018
    131 C45       -10.4420    2.5830    0.0960 ca        1 MOL     -0.260818
    132 C46       -10.2900    0.7190   -1.4030 ca        1 MOL     -0.260818
    133 C47       -10.9990    1.5010   -0.4720 ca        1 MOL      0.390823
    134 O20       -12.2750    1.2230   -0.0710 oh        1 MOL     -0.579643
    135 H56        -4.6840    2.9910   -2.0330 hn        1 MOL      0.168103
    136 H57        -6.2110    3.0830    0.2280 h1        1 MOL      0.043086
    137 H58        -6.7910    2.4120   -2.6990 hc        1 MOL      0.066255
    138 H59        -7.0840    3.8540   -1.6830 hc        1 MOL      0.066255
    139 H60        -8.8800    4.0070    0.1790 ha        1 MOL      0.133278
    140 H61        -8.5430    0.6870   -2.5990 ha        1 MOL      0.133278
    141 H62       -10.9370    2.9690    0.9780 ha        1 MOL      0.143009
    142 H63       -10.8100   -0.0980   -1.8950 ha        1 MOL      0.143009
    143 H64       -12.5970    0.4070   -0.4510 ho        1 MOL      0.402508
    144 N13        -6.0510   -0.0120   -0.7790 n         1 MOL     -0.031928
    145 C48        -6.3480   -1.4380   -0.4240 c3        1 MOL      0.006837
    146 C49        -5.4510   -1.8930    0.7640 c         1 MOL      0.202378
    147 O21        -5.8720   -2.8010    1.5420 o         1 MOL     -0.479090
    148 C50        -6.1830   -2.3630   -1.6330 c3        1 MOL      0.012676
    149 C51        -7.3350   -2.1220   -2.5750 c3        1 MOL     -0.299950
    150 C52        -7.6410   -3.4110   -3.4160 c         1 MOL      0.739617
    151 O22        -8.4220   -4.3070   -3.0050 o         1 MOL     -0.745849
    152 O23        -7.1490   -3.5590   -4.5610 o         1 MOL     -0.745849
    153 H65        -5.5150    0.2270   -1.5950 hn        1 MOL      0.057744
    154 H66        -7.3530   -1.4940   -0.0150 h1        1 MOL      0.087623
    155 H67        -6.2730   -3.3460   -1.1840 hc        1 MOL      0.055705
    156 H68        -5.2200   -2.2650   -2.1230 hc        1 MOL      0.055705
    157 H69        -7.1640   -1.2920   -3.2530 hc        1 MOL      0.025744
    158 H70        -8.1680   -1.7690   -1.9710 hc        1 MOL      0.025744
    159 N14        -4.2560   -1.2820    0.9540 n         1 MOL      0.054107
    160 C53        -3.4250   -1.4250    2.1090 c3        1 MOL     -0.235691
    161 C54        -4.0890   -0.6630    3.3250 c         1 MOL      0.457240
    162 O24        -4.0320   -1.1370    4.4750 o         1 MOL     -0.559598
    163 C55        -2.0480   -0.9000    1.7300 c3        1 MOL      0.093261
    164 C56        -1.3210   -1.6570    0.6290 c3        1 MOL     -0.163249
    165 C57         0.0340   -1.0710    0.4060 c         1 MOL      0.980856
    166 O25         1.0020   -1.7960    0.1870 o         1 MOL     -0.868263
    167 O26         0.1280    0.1520    0.3900 o         1 MOL     -0.868263
    168 H71        -4.0370   -0.4900    0.3510 hn        1 MOL     -0.025815
    169 H72        -3.2830   -2.4720    2.3670 h1        1 MOL      0.163498
    170 H73        -1.4000   -0.9660    2.5990 hc        1 MOL     -0.013317
    171 H74        -2.2040    0.1480    1.4730 hc        1 MOL     -0.013317
    172 H75        -1.9350   -1.5720   -0.2720 hc        1 MOL      0.043860
    173 H76        -1.2510   -2.6980    0.9420 hc        1 MOL      0.043860
    174 N15        -4.7880    0.4730    3.1360 n         1 MOL      0.043196
    175 C58        -5.5280    1.0840    4.1980 c3        1 MOL     -0.223560
    176 H77        -5.4140    2.1670    4.1440 h1        1 MOL      0.075241
    177 H78        -6.5830    0.8260    4.1020 h1        1 MOL      0.075241
    178 H79        -5.1520    0.7270    5.1560 h1        1 MOL      0.075241
    179 H80        -4.6730    0.9600    2.2530 hn        1 MOL      0.032753
    180 Ca1         2.7050    0.0920   -0.0530 Ca        1 MOL      1.795489
    181 O27         1.5790    0.8290   -2.6230 oh        1 MOL     -0.855024
    182 H81         1.8190    0.0400   -3.0920 ho        1 MOL      0.402363
    183 H82         2.2840    1.4520   -2.8100 ho        1 MOL      0.402363
    184 O28         5.0250    0.6400    1.8490 oh        1 MOL     -0.855024
    185 H83         5.8450    1.0580    2.0960 ho        1 MOL      0.402363
    186 H84         5.0520   -0.2260    2.2730 ho        1 MOL      0.402363
    187 O29         2.1580    0.5170    2.7880 oh        1 MOL     -0.855024
    188 H85         2.7670    0.9570    3.3780 ho        1 MOL      0.402363
    189 H86         1.5140    0.1110    3.3590 ho        1 MOL      0.402363
@<TRIPOS>BOND
     1    1    2 1   
     2    1    4 1   
     3    1    5 1   
     4    1    6 1   
     5    2    3 2   
     6    2    7 1   
     7    7    8 1   
     8    7   15 1   
     9    8    9 1   
    10    8   11 1   
    11    8   16 1   
    12    9   10 2   
    13    9   19 1   
    14   11   12 1   
    15   11   17 1   
    16   11   18 1   
    17   12   13 1   
    18   12   14 1   
    19   19   20 1   
    20   19   27 1   
    21   20   21 1   
    22   20   23 1   
    23   20   28 1   
    24   21   22 2   
    25   21   38 1   
    26   23   24 1   
    27   23   25 1   
    28   23   29 1   
    29   24   26 1   
    30   24   30 1   
    31   24   31 1   
    32   25   32 1   
    33   25   33 1   
    34   25   34 1   
    35   26   35 1   
    36   26   36 1   
    37   26   37 1   
    38   38   39 1   
    39   38   46 1   
    40   39   40 1   
    41   39   42 1   
    42   39   47 1   
    43   40   41 2   
    44   40   50 1   
    45   42   43 1   
    46   42   48 1   
    47   42   49 1   
    48   43   44 1   
    49   43   45 1   
    50   50   51 1   
    51   50   54 1   
    52   51   52 1   
    53   51   55 1   
    54   51   56 1   
    55   52   53 2   
    56   52   57 1   
    57   57   58 1   
    58   57   65 1   
    59   58   59 1   
    60   58   61 1   
    61   58   66 1   
    62   59   60 2   
    63   59   69 1   
    64   61   62 1   
    65   61   67 1   
    66   61   68 1   
    67   62   63 1   
    68   62   64 1   
    69   69   70 1   
    70   69   73 1   
    71   70   71 1   
    72   70   74 1   
    73   70   75 1   
    74   71   72 2   
    75   71   76 1   
    76   76   77 1   
    77   76   85 1   
    78   77   78 1   
    79   77   80 1   
    80   77   86 1   
    81   78   79 2   
    82   78   93 1   
    83   80   81 1   
    84   80   87 1   
    85   80   88 1   
    86   81   82 1   
    87   81   89 1   
    88   81   90 1   
    89   82   83 1   
    90   82   84 2   
    91   83   91 1   
    92   83   92 1   
    93   93   94 1   
    94   93  100 1   
    95   94   95 1   
    96   94   97 1   
    97   94  101 1   
    98   95   96 2   
    99   95  109 1   
   100   97   98 1   
   101   97   99 1   
   102   97  102 1   
   103   98  103 1   
   104   98  104 1   
   105   98  105 1   
   106   99  106 1   
   107   99  107 1   
   108   99  108 1   
   109  109  110 1   
   110  109  117 1   
   111  110  111 1   
   112  110  113 1   
   113  110  118 1   
   114  111  112 2   
   115  111  123 1   
   116  113  114 1   
   117  113  119 1   
   118  113  120 1   
   119  114  115 1   
   120  114  116 2   
   121  115  121 1   
   122  115  122 1   
   123  123  124 1   
   124  123  135 1   
   125  124  125 1   
   126  124  127 1   
   127  124  136 1   
   128  125  126 2   
   129  125  144 1   
   130  127  128 1   
   131  127  137 1   
   132  127  138 1   
   133  128  129 ar  
   134  128  130 ar  
   135  129  131 ar  
   136  129  139 1   
   137  130  132 ar  
   138  130  140 1   
   139  131  133 ar  
   140  131  141 1   
   141  132  133 ar  
   142  132  142 1   
   143  133  134 1   
   144  134  143 1   
   145  144  145 1   
   146  144  153 1   
   147  145  146 1   
   148  145  148 1   
   149  145  154 1   
   150  146  147 2   
   151  146  159 1   
   152  148  149 1   
   153  148  155 1   
   154  148  156 1   
   155  149  150 1   
   156  149  157 1   
   157  149  158 1   
   158  150  151 1   
   159  150  152 1   
   160  159  160 1   
   161  159  168 1   
   162  160  161 1   
   163  160  163 1   
   164  160  169 1   
   165  161  162 2   
   166  161  174 1   
   167  163  164 1   
   168  163  170 1   
   169  163  171 1   
   170  164  165 1   
   171  164  172 1   
   172  164  173 1   
   173  165  166 1   
   174  165  167 1   
   175  174  175 1   
   176  174  179 1   
   177  175  176 1   
   178  175  177 1   
   179  175  178 1   
   180  181  182 1   
   181  181  183 1   
   182  184  185 1   
   183  184  186 1   
   184  187  188 1   
   185  187  189 1   
@<TRIPOS>SUBSTRUCTURE
     1 MOL         1 TEMP              0 ****  ****    0 ROOT
