@<TRIPOS>MOLECULE
MOL
  169   169     1     0     0
SMALL
resp


@<TRIPOS>ATOM
      1 C1          0.0660   -3.9470    5.7980 c3        1 MOL     -0.332763
      2 C2          0.4530   -3.6880    4.3110 c         1 MOL      0.744003
      3 O1         -0.3410   -4.0340    3.4060 o         1 MOL     -0.601041
      4 H1          0.3660   -3.0930    6.4060 hc        1 MOL      0.079443
      5 H2         -1.0120   -4.0860    5.8750 hc        1 MOL      0.079443
      6 H3          0.5740   -4.8430    6.1560 hc        1 MOL      0.079443
      7 N1          1.5340   -2.9480    4.0660 n         1 MOL     -0.707616
      8 C3          1.9200   -2.5810    2.6410 c3        1 MOL      0.178197
      9 C4          2.4200   -3.8350    1.8300 c         1 MOL      0.762490
     10 O2          3.1080   -4.6920    2.3460 o         1 MOL     -0.599459
     11 C5          3.0370   -1.5490    2.7560 c3        1 MOL     -0.333541
     12 C6          3.6660   -1.0690    1.4840 c         1 MOL      0.663751
     13 O3          4.7370   -0.4850    1.5630 o         1 MOL     -0.599016
     14 O4          3.0410   -1.3330    0.4010 o         1 MOL     -0.599016
     15 H4          1.8720   -2.4950    4.9000 hn        1 MOL      0.345039
     16 H5          1.0420   -2.2090    2.1160 h1        1 MOL      0.040980
     17 H6          3.9160   -1.9310    3.2850 hc        1 MOL      0.079782
     18 H7          2.6030   -0.6820    3.2580 hc        1 MOL      0.079782
     19 N2          2.0170   -3.8360    0.5120 n         1 MOL     -0.737396
     20 C7          1.9100   -5.0100   -0.3790 c3        1 MOL      0.005588
     21 C8          2.5350   -4.8170   -1.7650 c         1 MOL      0.541593
     22 O5          2.4380   -5.6340   -2.6460 o         1 MOL     -0.566255
     23 C9          0.4540   -5.4610   -0.3600 c3        1 MOL     -0.080644
     24 H8          1.4620   -3.0150    0.2920 hn        1 MOL      0.640159
     25 H9          2.5080   -5.7760    0.1310 h1        1 MOL      0.077452
     26 H10        -0.2370   -4.6170   -0.4500 hc        1 MOL      0.019877
     27 H11         0.2340   -6.2280   -1.1060 hc        1 MOL      0.019877
     28 H12         0.3450   -5.9530    0.6110 hc        1 MOL      0.019877
     29 N3          3.3170   -3.7710   -1.7650 n         1 MOL     -0.181719
     30 C10         4.4740   -3.6470   -2.7030 c3        1 MOL     -0.042252
     31 C11         5.7580   -3.2390   -1.9370 c         1 MOL      0.415752
     32 O6          6.8640   -3.5810   -2.3750 o         1 MOL     -0.564098
     33 C12         4.2400   -2.7230   -3.9040 c3        1 MOL      0.073391
     34 C13         3.6280   -1.3450   -3.4850 c         1 MOL      0.582689
     35 O7          4.0770   -0.7500   -2.5400 o         1 MOL     -0.723696
     36 O8          2.4290   -1.2010   -3.7530 o         1 MOL     -0.723696
     37 H13         3.2420   -3.0620   -1.0510 hn        1 MOL      0.111645
     38 H14         4.6400   -4.6690   -3.0650 h1        1 MOL      0.065003
     39 H15         3.4940   -3.1960   -4.5510 hc        1 MOL     -0.012600
     40 H16         5.1190   -2.6670   -4.5440 hc        1 MOL     -0.012600
     41 N4          5.6500   -2.6480   -0.8090 n         1 MOL     -0.114321
     42 C14         6.7890   -2.3350    0.1180 c3        1 MOL     -0.249596
     43 C15         7.4050   -0.9080   -0.0950 c         1 MOL      0.581050
     44 O9          8.6230   -0.7750    0.0690 o         1 MOL     -0.600053
     45 H17         4.7110   -2.3350   -0.6210 hn        1 MOL      0.098515
     46 H18         7.6490   -2.9640   -0.1120 h1        1 MOL      0.124567
     47 H19         6.4690   -2.2880    1.1650 h1        1 MOL      0.124567
     48 N5          6.6240    0.1220   -0.5310 n         1 MOL     -0.145995
     49 C16         7.1040    1.4390   -0.9040 c3        1 MOL     -0.181148
     50 C17         6.8030    2.4460    0.2730 c         1 MOL      0.388237
     51 O10         6.9800    3.6680    0.1040 o         1 MOL     -0.493563
     52 C18         6.3650    1.8730   -2.1460 c3        1 MOL      0.005379
     53 C19         4.8790    2.0630   -2.1830 c         1 MOL      0.578975
     54 N6          4.3140    2.6260   -3.2560 n         1 MOL     -0.661027
     55 O11         4.1920    1.6700   -1.2790 o         1 MOL     -0.593631
     56 H20         5.6590   -0.1320   -0.6970 hn        1 MOL      0.147018
     57 H21         8.1650    1.3310   -1.1450 h1        1 MOL      0.142028
     58 H22         6.6460    1.1440   -2.9180 hc        1 MOL      0.025380
     59 H23         6.7090    2.8380   -2.5150 hc        1 MOL      0.025380
     60 H24         4.9040    2.7720   -4.0550 hn        1 MOL      0.323114
     61 H25         3.3230    2.8330   -3.2840 hn        1 MOL      0.323114
     62 N7          6.1360    1.9860    1.3760 n         1 MOL     -0.101479
     63 C20         5.8760    2.8880    2.4810 c3        1 MOL     -0.382644
     64 C21         4.8600    3.9990    2.1980 c         1 MOL      0.552905
     65 O12         4.8290    5.1350    2.6720 o         1 MOL     -0.548708
     66 H26         5.9210    1.0100    1.5300 hn        1 MOL      0.161674
     67 H27         6.8750    3.3000    2.6220 h1        1 MOL      0.151249
     68 H28         5.5820    2.2300    3.3050 h1        1 MOL      0.151249
     69 N8          3.8790    3.6160    1.3670 n         1 MOL     -0.361419
     70 C22         2.6850    4.3580    0.9360 c3        1 MOL     -0.009829
     71 C23         1.5570    3.4290    0.8180 c         1 MOL      0.574977
     72 O13         1.7350    2.3350    0.3020 o         1 MOL     -0.702286
     73 C24         2.9280    5.0820   -0.3800 c3        1 MOL      0.413100
     74 C25         1.6710    5.7280   -1.0260 c3        1 MOL     -0.565616
     75 O14         3.8640    6.0680   -0.1320 oh        1 MOL     -0.561625
     76 H29         4.0120    2.7580    0.8440 hn        1 MOL      0.289167
     77 H30         2.3470    5.1270    1.6350 h1        1 MOL      0.086849
     78 H31         3.3070    4.3380   -1.0870 h1        1 MOL     -0.019700
     79 H32         4.3110    6.1670   -0.9700 ho        1 MOL      0.356945
     80 H33         1.2670    6.3240   -0.2080 hc        1 MOL      0.145899
     81 H34         1.9730    6.3050   -1.9010 hc        1 MOL      0.145899
     82 H35         1.0330    4.9380   -1.3990 hc        1 MOL      0.145899
     83 N9          0.4120    3.8320    1.3570 n         1 MOL     -0.532279
     84 C26        -0.8090    3.0380    1.4790 c3        1 MOL      0.438015
     85 C27        -1.6630    3.2750    0.1870 c         1 MOL      0.213674
     86 O15        -2.1140    4.3660   -0.0090 o         1 MOL     -0.543381
     87 C28        -1.5650    3.4280    2.7870 c3        1 MOL     -0.145145
     88 C29        -0.8110    3.0110    4.0390 c3        1 MOL     -0.041602
     89 C30        -2.9610    2.8930    2.6580 c3        1 MOL      0.016814
     90 C31        -0.6380    1.4910    4.2700 c3        1 MOL     -0.148826
     91 H36         0.3440    4.8310    1.4890 hn        1 MOL      0.279498
     92 H37        -0.6360    1.9590    1.4730 h1        1 MOL      0.147126
     93 H38        -1.6910    4.5130    2.7310 hc        1 MOL      0.017394
     94 H39        -1.2700    3.3550    4.9560 hc        1 MOL      0.018326
     95 H40         0.1470    3.5230    4.0250 hc        1 MOL      0.018326
     96 H41        -3.6490    3.5690    2.1470 hc        1 MOL     -0.007040
     97 H42        -2.8570    1.9080    2.2150 hc        1 MOL     -0.007040
     98 H43        -3.3180    2.8190    3.6800 hc        1 MOL     -0.007040
     99 H44        -0.2080    1.3820    5.2630 hc        1 MOL      0.042102
    100 H45        -1.4960    0.8300    4.3330 hc        1 MOL      0.042102
    101 H46        -0.0340    1.0960    3.4460 hc        1 MOL      0.042102
    102 N10        -1.7600    2.2810   -0.6190 n         1 MOL     -0.000976
    103 C32        -2.8090    2.1110   -1.6390 c3        1 MOL      0.039433
    104 C33        -4.1040    1.5090   -1.0850 c         1 MOL      0.635550
    105 O16        -4.1660    1.1260    0.1150 o         1 MOL     -0.453850
    106 C34        -2.3200    1.3170   -2.8460 c3        1 MOL      0.017560
    107 C35        -0.9140    1.6850   -3.2590 c         1 MOL      0.637546
    108 O17        -0.8620    2.5670   -4.1300 o         1 MOL     -0.692254
    109 O18         0.0750    1.1490   -2.7310 o         1 MOL     -0.692254
    110 H47        -1.0800    1.5470   -0.4860 hn        1 MOL      0.029841
    111 H48        -3.0820    3.1180   -1.9720 h1        1 MOL      0.039950
    112 H49        -2.9470    1.3970   -3.7400 hc        1 MOL     -0.009142
    113 H50        -2.3570    0.2660   -2.5560 hc        1 MOL     -0.009142
    114 N11        -5.1760    1.5170   -1.8600 n         1 MOL     -0.920199
    115 C36        -6.4290    1.1750   -1.3180 c3        1 MOL      0.812991
    116 C37        -6.6520   -0.2170   -0.6940 c         1 MOL      0.200386
    117 O19        -7.2260   -0.2530    0.3840 o         1 MOL     -0.483272
    118 C38        -7.5080    1.5180   -2.3890 c3        1 MOL     -0.289440
    119 C39        -8.8840    1.4140   -1.8760 ca        1 MOL      0.093731
    120 C40        -9.5480    2.4820   -1.2150 ca        1 MOL     -0.185311
    121 C41        -9.5230    0.1880   -1.9660 ca        1 MOL     -0.185311
    122 C42       -10.8450    2.3650   -0.6530 ca        1 MOL     -0.056596
    123 C43       -10.8270    0.0700   -1.5550 ca        1 MOL     -0.056596
    124 C44       -11.4160    1.0930   -0.8760 ca        1 MOL     -0.176722
    125 H51        -5.1170    2.0550   -2.7060 hn        1 MOL      0.357869
    126 H52        -6.6410    1.8220   -0.4740 h1        1 MOL     -0.073467
    127 H53        -7.3840    0.9400   -3.3020 hc        1 MOL      0.070999
    128 H54        -7.3460    2.5700   -2.6090 hc        1 MOL      0.070999
    129 H55        -9.0190    3.4020   -0.9990 ha        1 MOL      0.111261
    130 H56        -9.0090   -0.7060   -2.3040 ha        1 MOL      0.111261
    131 H57       -11.3520    3.1300   -0.0710 ha        1 MOL      0.103663
    132 H58       -11.3450   -0.8610   -1.7470 ha        1 MOL      0.103663
    133 H59       -12.3520    0.9240   -0.3500 ha        1 MOL      0.101033
    134 N12        -6.2410   -1.3660   -1.2550 n         1 MOL     -0.082649
    135 C45        -6.1680   -2.7380   -0.6190 c3        1 MOL      0.152900
    136 C46        -5.4220   -2.7870    0.7420 c         1 MOL      0.216699
    137 O20        -5.7830   -3.5990    1.6160 o         1 MOL     -0.495896
    138 C47        -5.4860   -3.5960   -1.7260 c3        1 MOL     -0.188544
    139 C48        -5.8620   -2.8780   -3.0550 c3        1 MOL      0.088837
    140 C49        -5.6920   -1.4650   -2.5860 c3        1 MOL     -0.022699
    141 H60        -7.1920   -3.0590   -0.4270 h1        1 MOL      0.044168
    142 H61        -4.4060   -3.5990   -1.6150 hc        1 MOL      0.065883
    143 H62        -5.9570   -4.5850   -1.7980 hc        1 MOL      0.065883
    144 H63        -5.2990   -3.0750   -3.9680 hc        1 MOL      0.000255
    145 H64        -6.9220   -3.0500   -3.2800 hc        1 MOL      0.000255
    146 H65        -4.6490   -1.1440   -2.5110 h1        1 MOL      0.021253
    147 H66        -6.2140   -0.8710   -3.3460 h1        1 MOL      0.021253
    148 N13        -4.4320   -1.9240    0.9210 n         1 MOL     -0.070321
    149 C50        -3.5820   -1.8530    2.0830 c3        1 MOL     -0.026010
    150 C51        -4.1190   -0.9410    3.1900 c         1 MOL      0.467103
    151 O21        -4.0140   -1.1760    4.3390 o         1 MOL     -0.560371
    152 C52        -2.2440   -1.3680    1.6650 c3        1 MOL      0.021955
    153 C53        -1.5680   -2.1860    0.5200 c3        1 MOL      0.016965
    154 C54        -0.3770   -1.3590   -0.1390 c         1 MOL      0.546089
    155 O22        -0.1630   -0.1720    0.1550 o         1 MOL     -0.730568
    156 O23         0.3850   -1.9370   -0.9750 o         1 MOL     -0.730568
    157 H67        -4.2680   -1.2300    0.1950 hn        1 MOL      0.169163
    158 H68        -3.5170   -2.8070    2.6030 h1        1 MOL      0.092245
    159 H69        -1.6010   -1.3670    2.5410 hc        1 MOL     -0.006724
    160 H70        -2.3700   -0.3510    1.2910 hc        1 MOL     -0.006724
    161 H71        -2.3040   -2.4770   -0.2220 hc        1 MOL     -0.000734
    162 H72        -1.1770   -3.1310    0.8870 hc        1 MOL     -0.000734
    163 N14        -4.9240    0.0170    2.7730 n         1 MOL     -0.028740
    164 C55        -5.9300    0.6510    3.6340 c3        1 MOL     -0.286132
    165 H73        -5.4750    1.4820    4.1730 h1        1 MOL      0.094229
    166 H74        -6.7520    1.0230    3.0220 h1        1 MOL      0.094229
    167 H75        -6.3110   -0.0800    4.3480 h1        1 MOL      0.094229
    168 H76        -5.0120    0.2820    1.7940 hn        1 MOL      0.087639
    169 Ca1         2.0070    0.2200   -1.4260 Ca        1 MOL      1.721509
@<TRIPOS>BOND
     1    1    2 1   
     2    1    4 1   
     3    1    5 1   
     4    1    6 1   
     5    2    3 2   
     6    2    7 1   
     7    7    8 1   
     8    7   15 1   
     9    8    9 1   
    10    8   11 1   
    11    8   16 1   
    12    9   10 2   
    13    9   19 1   
    14   11   12 1   
    15   11   17 1   
    16   11   18 1   
    17   12   13 1   
    18   12   14 1   
    19   19   20 1   
    20   19   24 1   
    21   20   21 1   
    22   20   23 1   
    23   20   25 1   
    24   21   22 2   
    25   21   29 1   
    26   23   26 1   
    27   23   27 1   
    28   23   28 1   
    29   29   30 1   
    30   29   37 1   
    31   30   31 1   
    32   30   33 1   
    33   30   38 1   
    34   31   32 2   
    35   31   41 1   
    36   33   34 1   
    37   33   39 1   
    38   33   40 1   
    39   34   35 1   
    40   34   36 1   
    41   41   42 1   
    42   41   45 1   
    43   42   43 1   
    44   42   46 1   
    45   42   47 1   
    46   43   44 2   
    47   43   48 1   
    48   48   49 1   
    49   48   56 1   
    50   49   50 1   
    51   49   52 1   
    52   49   57 1   
    53   50   51 2   
    54   50   62 1   
    55   52   53 1   
    56   52   58 1   
    57   52   59 1   
    58   53   54 1   
    59   53   55 2   
    60   54   60 1   
    61   54   61 1   
    62   62   63 1   
    63   62   66 1   
    64   63   64 1   
    65   63   67 1   
    66   63   68 1   
    67   64   65 2   
    68   64   69 1   
    69   69   70 1   
    70   69   76 1   
    71   70   71 1   
    72   70   73 1   
    73   70   77 1   
    74   71   72 2   
    75   71   83 1   
    76   73   74 1   
    77   73   75 1   
    78   73   78 1   
    79   74   80 1   
    80   74   81 1   
    81   74   82 1   
    82   75   79 1   
    83   83   84 1   
    84   83   91 1   
    85   84   85 1   
    86   84   87 1   
    87   84   92 1   
    88   85   86 2   
    89   85  102 1   
    90   87   88 1   
    91   87   89 1   
    92   87   93 1   
    93   88   90 1   
    94   88   94 1   
    95   88   95 1   
    96   89   96 1   
    97   89   97 1   
    98   89   98 1   
    99   90   99 1   
   100   90  100 1   
   101   90  101 1   
   102  102  103 1   
   103  102  110 1   
   104  103  104 1   
   105  103  106 1   
   106  103  111 1   
   107  104  105 2   
   108  104  114 1   
   109  106  107 1   
   110  106  112 1   
   111  106  113 1   
   112  107  108 1   
   113  107  109 1   
   114  114  115 1   
   115  114  125 1   
   116  115  116 1   
   117  115  118 1   
   118  115  126 1   
   119  116  117 2   
   120  116  134 1   
   121  118  119 1   
   122  118  127 1   
   123  118  128 1   
   124  119  120 ar  
   125  119  121 ar  
   126  120  122 ar  
   127  120  129 1   
   128  121  123 ar  
   129  121  130 1   
   130  122  124 ar  
   131  122  131 1   
   132  123  124 ar  
   133  123  132 1   
   134  124  133 1   
   135  134  135 1   
   136  134  140 1   
   137  135  136 1   
   138  135  138 1   
   139  135  141 1   
   140  136  137 2   
   141  136  148 1   
   142  138  139 1   
   143  138  142 1   
   144  138  143 1   
   145  139  140 1   
   146  139  144 1   
   147  139  145 1   
   148  140  146 1   
   149  140  147 1   
   150  148  149 1   
   151  148  157 1   
   152  149  150 1   
   153  149  152 1   
   154  149  158 1   
   155  150  151 2   
   156  150  163 1   
   157  152  153 1   
   158  152  159 1   
   159  152  160 1   
   160  153  154 1   
   161  153  161 1   
   162  153  162 1   
   163  154  155 1   
   164  154  156 1   
   165  163  164 1   
   166  163  168 1   
   167  164  165 1   
   168  164  166 1   
   169  164  167 1   
@<TRIPOS>SUBSTRUCTURE
     1 MOL         1 TEMP              0 ****  ****    0 ROOT
