@<TRIPOS>MOLECULE
MOL
  189   185     1     0     0
SMALL
resp


@<TRIPOS>ATOM
      1 C1          0.6420   -4.8300    5.6170 c3        1 MOL     -0.317680
      2 C2          1.0650   -4.0720    4.3540 c         1 MOL      0.685861
      3 O1          1.0100   -2.8190    4.2520 o         1 MOL     -0.590837
      4 H1         -0.4110   -4.6350    5.8210 hc        1 MOL      0.079882
      5 H2          0.7900   -5.9000    5.4660 hc        1 MOL      0.079882
      6 H3          1.2440   -4.4950    6.4620 hc        1 MOL      0.079882
      7 N1          1.5960   -4.8290    3.4150 n         1 MOL     -0.523128
      8 C3          2.3040   -4.3350    2.2010 c3        1 MOL      0.238319
      9 C4          2.1360   -5.2250    0.9080 c         1 MOL      0.420711
     10 O2          2.4770   -6.4300    0.9040 o         1 MOL     -0.572844
     11 C5          3.7820   -4.0780    2.5730 c3        1 MOL     -0.203018
     12 C6          4.4230   -3.0370    1.6750 c         1 MOL      0.801395
     13 O3          5.5950   -2.6560    2.0130 o         1 MOL     -0.722343
     14 O4          3.8990   -2.6010    0.6430 o         1 MOL     -0.722343
     15 H4          1.6350   -5.8330    3.5180 hn        1 MOL      0.294679
     16 H5          1.8680   -3.3760    1.8890 h1        1 MOL     -0.000224
     17 H6          4.1840   -5.0950    2.6060 hc        1 MOL      0.030057
     18 H7          3.8510   -3.7310    3.6060 hc        1 MOL      0.030057
     19 N2          1.5960   -4.6570   -0.1650 n         1 MOL     -0.077656
     20 C7          1.2030   -5.4570   -1.3310 c3        1 MOL     -0.353464
     21 C8          2.0880   -5.1270   -2.5370 c         1 MOL      0.627293
     22 O5          2.0340   -5.9000   -3.4990 o         1 MOL     -0.595932
     23 C9         -0.2900   -5.2890   -1.6230 c3        1 MOL      0.175684
     24 C10        -0.7500   -3.9480   -2.4030 c3        1 MOL      0.115553
     25 C11        -1.0990   -5.7470   -0.3480 c3        1 MOL     -0.270016
     26 C12        -2.2400   -3.7140   -2.5010 c3        1 MOL     -0.214977
     27 H8          1.4900   -3.6620   -0.2320 hn        1 MOL      0.089905
     28 H9          1.3450   -6.5070   -1.0670 h1        1 MOL      0.159272
     29 H10        -0.6090   -6.0570   -2.3210 hc        1 MOL     -0.003664
     30 H11        -0.2970   -4.0430   -3.3900 hc        1 MOL     -0.008577
     31 H12        -0.3800   -3.0360   -1.9320 hc        1 MOL     -0.008577
     32 H13        -1.0280   -4.9860    0.4270 hc        1 MOL      0.061309
     33 H14        -2.1580   -5.8170   -0.5840 hc        1 MOL      0.061309
     34 H15        -0.8020   -6.7110    0.0710 hc        1 MOL      0.061309
     35 H16        -2.7430   -4.5070   -3.0580 hc        1 MOL      0.044350
     36 H17        -2.6650   -3.5760   -1.5080 hc        1 MOL      0.044350
     37 H18        -2.3770   -2.7820   -3.0440 hc        1 MOL      0.044350
     38 N3          2.8420   -4.0530   -2.4300 n         1 MOL     -0.409364
     39 C13         3.6200   -3.5250   -3.5710 c3        1 MOL     -0.029486
     40 C14         5.0460   -3.1590   -3.1830 c         1 MOL      0.425208
     41 O6          5.8600   -2.9370   -4.0690 o         1 MOL     -0.567567
     42 C15         2.9010   -2.2570   -4.1140 c3        1 MOL     -0.089105
     43 C16         2.6220   -1.1500   -3.1590 c         1 MOL      0.616860
     44 O7          3.1600   -1.1690   -2.0550 o         1 MOL     -0.671330
     45 O8          1.9590   -0.2070   -3.6220 o         1 MOL     -0.671330
     46 H19         2.8630   -3.5750   -1.5440 hn        1 MOL      0.280435
     47 H20         3.5810   -4.3160   -4.3190 h1        1 MOL      0.103061
     48 H21         1.9790   -2.5800   -4.5720 hc        1 MOL      0.049676
     49 H22         3.4950   -1.8560   -4.9350 hc        1 MOL      0.049676
     50 N4          5.3870   -2.9860   -1.9060 n         1 MOL     -0.163332
     51 C17         6.7390   -2.7030   -1.3670 c3        1 MOL     -0.320041
     52 C18         7.1640   -1.2150   -1.4860 c         1 MOL      0.573071
     53 O9          8.3180   -0.8520   -1.1930 o         1 MOL     -0.604307
     54 H23         4.6100   -3.1240   -1.2660 hn        1 MOL      0.146282
     55 H24         7.4860   -3.2790   -1.9290 h1        1 MOL      0.146685
     56 H25         6.7840   -3.0560   -0.3320 h1        1 MOL      0.146685
     57 N5          6.2310   -0.2760   -1.8760 n         1 MOL     -0.228982
     58 C19         6.4990    1.0600   -2.4200 c3        1 MOL     -0.051359
     59 C20         7.1800    2.0780   -1.4970 c         1 MOL      0.536381
     60 O10         7.8490    3.0140   -1.9330 o         1 MOL     -0.567200
     61 C21         5.2310    1.6820   -3.0060 c3        1 MOL     -0.308091
     62 C22         4.1100    2.0180   -2.0700 c         1 MOL      0.841162
     63 O11         4.1090    1.6180   -0.8660 o         1 MOL     -0.688907
     64 O12         3.1920    2.7000   -2.5420 o         1 MOL     -0.688907
     65 H26         5.2840   -0.6460   -1.8870 hn        1 MOL      0.249186
     66 H27         7.2020    0.8610   -3.2170 h1        1 MOL      0.082643
     67 H28         4.6960    1.1390   -3.7870 hc        1 MOL      0.092815
     68 H29         5.5640    2.6160   -3.4610 hc        1 MOL      0.092815
     69 N6          7.0730    1.9010   -0.1360 n         1 MOL     -0.296273
     70 C23         7.3100    2.8050    0.9300 c3        1 MOL     -0.128305
     71 C24         6.1580    3.7030    1.3940 c         1 MOL      0.535328
     72 O13         6.4570    4.5410    2.2060 o         1 MOL     -0.618186
     73 H30         6.6410    1.0330    0.1460 hn        1 MOL      0.253105
     74 H31         8.1460    3.4750    0.7170 h1        1 MOL      0.074732
     75 H32         7.6050    2.3180    1.8650 h1        1 MOL      0.074732
     76 N7          4.9790    3.5370    0.8490 n         1 MOL     -0.092428
     77 C25         3.7600    4.1760    1.3320 c3        1 MOL     -0.073918
     78 C26         2.5920    3.1360    1.7290 c         1 MOL      0.520250
     79 O14         2.7780    1.9330    1.7290 o         1 MOL     -0.517428
     80 C27         3.3290    5.2140    0.2440 c3        1 MOL      0.092835
     81 C28         4.2630    6.3900   -0.0210 c3        1 MOL     -0.294792
     82 C29         3.8440    7.4260   -1.0700 c         1 MOL      0.691107
     83 N8          4.7380    7.7910   -1.9590 n         1 MOL     -0.796193
     84 O15         2.7370    7.9660   -1.0690 o         1 MOL     -0.581618
     85 H33         4.8920    2.7300    0.2580 hn        1 MOL      0.014671
     86 H34         4.0410    4.7420    2.2180 h1        1 MOL      0.068975
     87 H35         2.3650    5.6570    0.5020 hc        1 MOL      0.015368
     88 H36         3.1580    4.7430   -0.7210 hc        1 MOL      0.015368
     89 H37         5.2300    5.9900   -0.3110 hc        1 MOL      0.070513
     90 H38         4.6000    6.7890    0.9370 hc        1 MOL      0.070513
     91 H39         5.6430    7.3400   -1.9620 hn        1 MOL      0.359868
     92 H40         4.4510    8.4300   -2.6880 hn        1 MOL      0.359868
     93 N9          1.4420    3.6690    2.1530 n         1 MOL     -0.465919
     94 C30         0.3220    2.8190    2.4540 c3        1 MOL     -0.081437
     95 C31        -0.8280    3.2940    1.5740 c         1 MOL      0.567613
     96 O16        -1.2610    4.3990    1.6260 o         1 MOL     -0.587356
     97 C32         0.0590    2.8680    3.9700 c3        1 MOL      0.430263
     98 C33        -1.3440    2.3740    4.3410 c3        1 MOL     -0.363397
     99 C34         1.1960    2.2280    4.7380 c3        1 MOL     -0.363397
    100 H41         1.2770    4.6670    2.2130 hn        1 MOL      0.304356
    101 H42         0.4930    1.7680    2.2160 h1        1 MOL      0.101266
    102 H43         0.0630    3.8940    4.3150 hc        1 MOL     -0.084466
    103 H44        -1.5170    2.4100    5.4070 hc        1 MOL      0.071205
    104 H45        -2.1390    2.9250    3.8460 hc        1 MOL      0.071205
    105 H46        -1.4820    1.3390    4.0150 hc        1 MOL      0.071205
    106 H47         1.2570    1.1760    4.4700 hc        1 MOL      0.071205
    107 H48         2.1270    2.7650    4.5630 hc        1 MOL      0.071205
    108 H49         0.8530    2.1740    5.7670 hc        1 MOL      0.071205
    109 N10        -1.2470    2.4580    0.6330 n         1 MOL     -0.345566
    110 C35        -2.4230    2.6740   -0.2500 c3        1 MOL      0.000921
    111 C36        -3.7130    2.5130    0.5230 c         1 MOL      0.419766
    112 O17        -3.7320    1.8700    1.5320 o         1 MOL     -0.378436
    113 C37        -2.3320    1.6270   -1.4220 c3        1 MOL     -0.104838
    114 C38        -3.5450    1.7360   -2.2840 c         1 MOL      0.573118
    115 N11        -3.5400    2.7850   -3.0730 n         1 MOL     -0.721729
    116 O18        -4.5270    0.9770   -2.2790 o         1 MOL     -0.496606
    117 H50        -0.8490    1.5310    0.5810 hn        1 MOL      0.310469
    118 H51        -2.4760    3.6650   -0.7050 h1        1 MOL      0.060314
    119 H52        -2.2750    0.6220   -1.0010 hc        1 MOL      0.070518
    120 H53        -1.4130    1.8440   -1.9690 hc        1 MOL      0.070518
    121 H54        -2.6890    3.2810   -3.2730 hn        1 MOL      0.342439
    122 H55        -4.2990    2.8510   -3.7390 hn        1 MOL      0.342439
    123 N12        -4.8550    3.0460    0.0340 n         1 MOL     -0.296400
    124 C39        -6.1050    2.9020    0.7030 c3        1 MOL      0.115882
    125 C40        -6.5110    1.4080    0.9430 c         1 MOL      0.345570
    126 O19        -6.9270    1.1240    2.0950 o         1 MOL     -0.563908
    127 C41        -7.2460    3.5990   -0.0780 c3        1 MOL     -0.290718
    128 C42        -7.8510    2.8500   -1.2780 ca        1 MOL      0.174476
    129 C43        -7.3230    3.0810   -2.5370 ca        1 MOL     -0.250914
    130 C44        -8.9410    1.9710   -1.1930 ca        1 MOL     -0.250914
    131 C45        -7.8300    2.3930   -3.6680 ca        1 MOL     -0.268917
    132 C46        -9.4390    1.3560   -2.3450 ca        1 MOL     -0.268917
    133 C47        -8.9560    1.5680   -3.6280 ca        1 MOL      0.424140
    134 O20        -9.4650    1.0700   -4.7800 oh        1 MOL     -0.627801
    135 H56        -4.8670    3.5170   -0.8530 hn        1 MOL      0.169421
    136 H57        -5.8970    3.2630    1.7110 h1        1 MOL      0.048208
    137 H58        -6.9120    4.5650   -0.4370 hc        1 MOL      0.081935
    138 H59        -8.0620    3.7280    0.6280 hc        1 MOL      0.081935
    139 H60        -6.4920    3.7630   -2.5820 ha        1 MOL      0.157797
    140 H61        -9.3630    1.7440   -0.2230 ha        1 MOL      0.157797
    141 H62        -7.3700    2.5440   -4.6320 ha        1 MOL      0.148478
    142 H63       -10.2590    0.6540   -2.1960 ha        1 MOL      0.148478
    143 H64       -10.1360    0.3810   -4.7680 ho        1 MOL      0.459151
    144 N13        -6.2670    0.4800   -0.0110 n         1 MOL      0.352127
    145 C48        -6.7000   -0.9150    0.2030 c3        1 MOL     -0.188660
    146 C49        -5.8470   -1.5790    1.3200 c         1 MOL      0.368424
    147 O21        -6.2010   -2.6110    1.8920 o         1 MOL     -0.502951
    148 C50        -6.5160   -1.8110   -0.9850 c3        1 MOL      0.121295
    149 C51        -7.3640   -1.5510   -2.2680 c3        1 MOL     -0.031020
    150 C52        -8.7310   -2.1870   -2.0860 c         1 MOL      0.730760
    151 O22        -9.3520   -2.0400   -0.9870 o         1 MOL     -0.746336
    152 O23        -9.3460   -2.6700   -3.0130 o         1 MOL     -0.746336
    153 H65        -5.7240    0.7060   -0.8360 hn        1 MOL     -0.095422
    154 H66        -7.7330   -0.9420    0.5320 h1        1 MOL      0.100041
    155 H67        -6.7940   -2.8000   -0.6310 hc        1 MOL     -0.033233
    156 H68        -5.5010   -1.8110   -1.3630 hc        1 MOL     -0.033233
    157 H69        -7.0210   -2.0080   -3.2030 hc        1 MOL     -0.024852
    158 H70        -7.5120   -0.4800   -2.4330 hc        1 MOL     -0.024852
    159 N14        -4.7000   -1.0200    1.6220 n         1 MOL     -0.187426
    160 C53        -3.7310   -1.5260    2.5970 c3        1 MOL     -0.087452
    161 C54        -4.0930   -1.1960    4.0100 c         1 MOL      0.425552
    162 O24        -3.9990   -2.0590    4.9310 o         1 MOL     -0.563811
    163 C55        -2.2080   -1.1070    2.2650 c3        1 MOL      0.003733
    164 C56        -1.5440   -1.9120    1.1360 c3        1 MOL      0.160605
    165 C57        -0.2050   -1.3060    0.6680 c         1 MOL      0.680274
    166 O25         0.7160   -2.0250    0.3050 o         1 MOL     -0.689671
    167 O26         0.1920   -0.1740    0.8470 o         1 MOL     -0.689671
    168 H71        -4.4980   -0.1280    1.1810 hn        1 MOL      0.139572
    169 H72        -3.6530   -2.6150    2.7000 h1        1 MOL      0.083734
    170 H73        -1.5610   -1.2800    3.1220 hc        1 MOL     -0.007726
    171 H74        -2.2110   -0.0620    1.9650 hc        1 MOL     -0.007726
    172 H75        -2.2290   -1.9980    0.2950 hc        1 MOL     -0.048273
    173 H76        -1.3700   -2.9510    1.4360 hc        1 MOL     -0.048273
    174 N15        -4.5980    0.0130    4.1630 n         1 MOL     -0.018118
    175 C58        -4.9710    0.5970    5.4780 c3        1 MOL     -0.364168
    176 H77        -5.2110    1.6520    5.3520 h1        1 MOL      0.118030
    177 H78        -5.8400    0.0720    5.8750 h1        1 MOL      0.118030
    178 H79        -4.1360    0.4950    6.1720 h1        1 MOL      0.118030
    179 H80        -4.8700    0.4710    3.3080 hn        1 MOL      0.133823
    180 Ca1         2.7390   -0.3110    0.3200 Ca        1 MOL      1.652635
    181 O27         2.5450   -0.9010    2.8700 oh        1 MOL     -0.817758
    182 H81         3.1620   -0.6890    3.5720 ho        1 MOL      0.388567
    183 H82         1.8590   -1.4040    3.2990 ho        1 MOL      0.388567
    184 O28         5.2520   -0.0910    1.4280 oh        1 MOL     -0.817758
    185 H83         5.2010    0.3500    2.2830 ho        1 MOL      0.388567
    186 H84         5.5530   -0.9730    1.6270 ho        1 MOL      0.388567
    187 O29         1.0850    1.3920   -1.2560 oh        1 MOL     -0.817758
    188 H85         1.7890    1.9810   -1.5400 ho        1 MOL      0.388567
    189 H86         1.1260    0.6660   -1.8870 ho        1 MOL      0.388567
@<TRIPOS>BOND
     1    1    2 1   
     2    1    4 1   
     3    1    5 1   
     4    1    6 1   
     5    2    3 2   
     6    2    7 1   
     7    7    8 1   
     8    7   15 1   
     9    8    9 1   
    10    8   11 1   
    11    8   16 1   
    12    9   10 2   
    13    9   19 1   
    14   11   12 1   
    15   11   17 1   
    16   11   18 1   
    17   12   13 1   
    18   12   14 1   
    19   19   20 1   
    20   19   27 1   
    21   20   21 1   
    22   20   23 1   
    23   20   28 1   
    24   21   22 2   
    25   21   38 1   
    26   23   24 1   
    27   23   25 1   
    28   23   29 1   
    29   24   26 1   
    30   24   30 1   
    31   24   31 1   
    32   25   32 1   
    33   25   33 1   
    34   25   34 1   
    35   26   35 1   
    36   26   36 1   
    37   26   37 1   
    38   38   39 1   
    39   38   46 1   
    40   39   40 1   
    41   39   42 1   
    42   39   47 1   
    43   40   41 2   
    44   40   50 1   
    45   42   43 1   
    46   42   48 1   
    47   42   49 1   
    48   43   44 1   
    49   43   45 1   
    50   50   51 1   
    51   50   54 1   
    52   51   52 1   
    53   51   55 1   
    54   51   56 1   
    55   52   53 2   
    56   52   57 1   
    57   57   58 1   
    58   57   65 1   
    59   58   59 1   
    60   58   61 1   
    61   58   66 1   
    62   59   60 2   
    63   59   69 1   
    64   61   62 1   
    65   61   67 1   
    66   61   68 1   
    67   62   63 1   
    68   62   64 1   
    69   69   70 1   
    70   69   73 1   
    71   70   71 1   
    72   70   74 1   
    73   70   75 1   
    74   71   72 2   
    75   71   76 1   
    76   76   77 1   
    77   76   85 1   
    78   77   78 1   
    79   77   80 1   
    80   77   86 1   
    81   78   79 2   
    82   78   93 1   
    83   80   81 1   
    84   80   87 1   
    85   80   88 1   
    86   81   82 1   
    87   81   89 1   
    88   81   90 1   
    89   82   83 1   
    90   82   84 2   
    91   83   91 1   
    92   83   92 1   
    93   93   94 1   
    94   93  100 1   
    95   94   95 1   
    96   94   97 1   
    97   94  101 1   
    98   95   96 2   
    99   95  109 1   
   100   97   98 1   
   101   97   99 1   
   102   97  102 1   
   103   98  103 1   
   104   98  104 1   
   105   98  105 1   
   106   99  106 1   
   107   99  107 1   
   108   99  108 1   
   109  109  110 1   
   110  109  117 1   
   111  110  111 1   
   112  110  113 1   
   113  110  118 1   
   114  111  112 2   
   115  111  123 1   
   116  113  114 1   
   117  113  119 1   
   118  113  120 1   
   119  114  115 1   
   120  114  116 2   
   121  115  121 1   
   122  115  122 1   
   123  123  124 1   
   124  123  135 1   
   125  124  125 1   
   126  124  127 1   
   127  124  136 1   
   128  125  126 2   
   129  125  144 1   
   130  127  128 1   
   131  127  137 1   
   132  127  138 1   
   133  128  129 ar  
   134  128  130 ar  
   135  129  131 ar  
   136  129  139 1   
   137  130  132 ar  
   138  130  140 1   
   139  131  133 ar  
   140  131  141 1   
   141  132  133 ar  
   142  132  142 1   
   143  133  134 1   
   144  134  143 1   
   145  144  145 1   
   146  144  153 1   
   147  145  146 1   
   148  145  148 1   
   149  145  154 1   
   150  146  147 2   
   151  146  159 1   
   152  148  149 1   
   153  148  155 1   
   154  148  156 1   
   155  149  150 1   
   156  149  157 1   
   157  149  158 1   
   158  150  151 1   
   159  150  152 1   
   160  159  160 1   
   161  159  168 1   
   162  160  161 1   
   163  160  163 1   
   164  160  169 1   
   165  161  162 2   
   166  161  174 1   
   167  163  164 1   
   168  163  170 1   
   169  163  171 1   
   170  164  165 1   
   171  164  172 1   
   172  164  173 1   
   173  165  166 1   
   174  165  167 1   
   175  174  175 1   
   176  174  179 1   
   177  175  176 1   
   178  175  177 1   
   179  175  178 1   
   180  181  182 1   
   181  181  183 1   
   182  184  185 1   
   183  184  186 1   
   184  187  188 1   
   185  187  189 1   
@<TRIPOS>SUBSTRUCTURE
     1 MOL         1 TEMP              0 ****  ****    0 ROOT
