@<TRIPOS>MOLECULE
MOL
  189   185     1     0     0
SMALL
resp


@<TRIPOS>ATOM
      1 C1          0.6880   -3.1750    6.6660 c3        1 MOL     -0.368737
      2 C2          1.2110   -2.9130    5.2220 c         1 MOL      0.668262
      3 O1          1.6440   -1.7510    4.9980 o         1 MOL     -0.597191
      4 H1          0.9230   -2.3200    7.2990 hc        1 MOL      0.101031
      5 H2         -0.3920   -3.3220    6.6410 hc        1 MOL      0.101031
      6 H3          1.1670   -4.0670    7.0700 hc        1 MOL      0.101031
      7 N1          1.2190   -3.8620    4.2820 n         1 MOL     -0.448746
      8 C3          1.6000   -3.7270    2.9020 c3        1 MOL     -0.028821
      9 C4          1.1220   -4.8090    1.8940 c         1 MOL      0.690079
     10 O2          0.9330   -5.9410    2.3010 o         1 MOL     -0.587315
     11 C5          3.0880   -3.7480    2.9660 c3        1 MOL     -0.361252
     12 C6          3.8450   -3.2560    1.6670 c         1 MOL      0.715692
     13 O3          3.2140   -2.7110    0.7080 o         1 MOL     -0.682781
     14 O4          5.1280   -3.1790    1.6450 o         1 MOL     -0.682781
     15 H4          0.7510   -4.7430    4.4500 hn        1 MOL      0.271840
     16 H5          1.3180   -2.7350    2.5350 h1        1 MOL      0.139198
     17 H6          3.4330   -4.7440    3.2410 hc        1 MOL      0.106778
     18 H7          3.3960   -2.9950    3.6880 hc        1 MOL      0.106778
     19 N2          0.9590   -4.4550    0.6010 n         1 MOL     -0.320416
     20 C7          0.4500   -5.2980   -0.4680 c3        1 MOL     -0.234471
     21 C8          1.3870   -5.1210   -1.7410 c         1 MOL      0.590994
     22 O5          1.1020   -5.8500   -2.7120 o         1 MOL     -0.582346
     23 C9         -1.0360   -5.1640   -0.7150 c3        1 MOL      0.300322
     24 C10        -1.4450   -3.8270   -1.2990 c3        1 MOL     -0.124801
     25 C11        -1.7590   -5.5500    0.5730 c3        1 MOL     -0.293147
     26 C12        -2.9670   -3.6800   -1.4480 c3        1 MOL     -0.154263
     27 H8          1.1160   -3.4760    0.4150 hn        1 MOL      0.064037
     28 H9          0.6080   -6.2940   -0.0480 h1        1 MOL      0.106152
     29 H10        -1.2640   -5.9210   -1.4640 hc        1 MOL     -0.008691
     30 H11        -0.9560   -3.5440   -2.2280 hc        1 MOL      0.068846
     31 H12        -1.1660   -2.9930   -0.6540 hc        1 MOL      0.068846
     32 H13        -1.4050   -6.4740    1.0540 hc        1 MOL      0.061131
     33 H14        -1.6160   -4.7090    1.2470 hc        1 MOL      0.061131
     34 H15        -2.7730   -5.8040    0.2540 hc        1 MOL      0.061131
     35 H16        -3.4110   -3.5440   -0.4650 hc        1 MOL      0.054638
     36 H17        -3.1900   -2.7310   -1.9470 hc        1 MOL      0.054638
     37 H18        -3.4080   -4.4980   -2.0070 hc        1 MOL      0.054638
     38 N3          2.3530   -4.1950   -1.7280 n         1 MOL     -0.507105
     39 C13         3.2620   -3.9720   -2.8870 c3        1 MOL      0.026682
     40 C14         4.7160   -3.5800   -2.6790 c         1 MOL      0.360913
     41 O6          5.5420   -3.5990   -3.5700 o         1 MOL     -0.523896
     42 C15         2.6240   -2.9030   -3.7470 c3        1 MOL     -0.177516
     43 C16         2.4450   -1.5390   -3.0500 c         1 MOL      0.749687
     44 O7          2.9780   -1.3850   -1.9520 o         1 MOL     -0.684008
     45 O8          1.8460   -0.6320   -3.6570 o         1 MOL     -0.684008
     46 H19         2.3490   -3.5340   -0.9590 hn        1 MOL      0.419745
     47 H20         3.3430   -4.9380   -3.3980 h1        1 MOL      0.112220
     48 H21         1.6240   -3.1200   -4.1170 hc        1 MOL      0.047820
     49 H22         3.1990   -2.8850   -4.6670 hc        1 MOL      0.047820
     50 N4          5.1140   -3.2340   -1.4400 n         1 MOL     -0.049005
     51 C17         6.5710   -3.1040   -1.0700 c3        1 MOL     -0.322215
     52 C18         7.1680   -1.7310   -1.5010 c         1 MOL      0.523891
     53 O9          8.3600   -1.6440   -1.8400 o         1 MOL     -0.571824
     54 H23         4.3770   -3.0940   -0.7570 hn        1 MOL      0.059839
     55 H24         7.0750   -3.8660   -1.6540 h1        1 MOL      0.141273
     56 H25         6.8470   -3.2120   -0.0250 h1        1 MOL      0.141273
     57 N5          6.3110   -0.6950   -1.6870 n         1 MOL     -0.317166
     58 C19         6.7610    0.5890   -2.2200 c3        1 MOL      0.091504
     59 C20         7.5430    1.4910   -1.2080 c         1 MOL      0.461735
     60 O10         8.5370    2.0910   -1.5070 o         1 MOL     -0.536463
     61 C21         5.6810    1.3080   -2.9550 c3        1 MOL     -0.252683
     62 C22         4.4550    1.6730   -2.1180 c         1 MOL      0.586319
     63 O11         4.2380    1.3160   -0.9290 o         1 MOL     -0.628030
     64 O12         3.5900    2.3670   -2.7270 o         1 MOL     -0.628030
     65 H26         5.3600   -0.8450   -1.3980 hn        1 MOL      0.304234
     66 H27         7.5420    0.5630   -2.9730 h1        1 MOL      0.063636
     67 H28         5.2920    0.6660   -3.7460 hc        1 MOL      0.088922
     68 H29         6.0700    2.2540   -3.3170 hc        1 MOL      0.088922
     69 N6          7.0350    1.4590    0.0320 n         1 MOL     -0.251463
     70 C23         7.3380    2.4130    1.1100 c3        1 MOL     -0.064437
     71 C24         6.3210    3.5370    1.1930 c         1 MOL      0.475059
     72 O13         6.7070    4.6150    1.6940 o         1 MOL     -0.605055
     73 H30         6.2540    0.8140    0.1480 hn        1 MOL      0.094452
     74 H31         8.3710    2.7430    1.0320 h1        1 MOL      0.060635
     75 H32         7.2110    1.9160    2.0680 h1        1 MOL      0.060635
     76 N7          5.1160    3.2630    0.7840 n         1 MOL     -0.108634
     77 C25         3.9270    4.1970    0.8820 c3        1 MOL     -0.286926
     78 C26         2.7260    3.4600    1.4440 c         1 MOL      0.691514
     79 O14         2.7910    2.2220    1.6300 o         1 MOL     -0.641404
     80 C27         3.5860    4.8330   -0.5810 c3        1 MOL      0.077463
     81 C28         4.7500    5.3970   -1.4930 c3        1 MOL     -0.351819
     82 C29         4.1040    5.9210   -2.7670 c         1 MOL      0.606152
     83 N8          3.6540    5.0100   -3.5820 n         1 MOL     -0.697395
     84 O15         3.8260    7.0700   -3.0080 o         1 MOL     -0.603293
     85 H33         5.0170    2.3570    0.3450 hn        1 MOL      0.223829
     86 H34         4.1960    4.9750    1.5860 h1        1 MOL      0.117198
     87 H35         2.8550    5.6300   -0.4820 hc        1 MOL      0.055919
     88 H36         3.0100    4.0790   -1.1180 hc        1 MOL      0.055919
     89 H37         5.5170    4.6600   -1.7280 hc        1 MOL      0.115275
     90 H38         5.3330    6.2150   -1.0790 hc        1 MOL      0.115275
     91 H39         3.7680    4.0300   -3.3960 hn        1 MOL      0.329440
     92 H40         3.1590    5.3630   -4.3840 hn        1 MOL      0.329440
     93 N9          1.6960    4.2380    1.8530 n         1 MOL     -0.622462
     94 C30         0.3550    3.6610    2.0810 c3        1 MOL      0.224102
     95 C31        -0.5300    3.8860    0.8870 c         1 MOL      0.354097
     96 O16        -0.5700    5.0320    0.3160 o         1 MOL     -0.535295
     97 C32        -0.3180    4.1540    3.3760 c3        1 MOL      0.148290
     98 C33        -0.7080    5.6090    3.5500 c3        1 MOL     -0.277986
     99 C34        -1.6080    3.4170    3.7730 c3        1 MOL     -0.277986
    100 H41         1.7220    5.2370    1.7350 hn        1 MOL      0.323840
    101 H42         0.4070    2.5910    2.2720 h1        1 MOL      0.119520
    102 H43         0.3820    3.9540    4.1790 hc        1 MOL      0.002305
    103 H44        -1.0820    5.7830    4.5640 hc        1 MOL      0.060362
    104 H45         0.1430    6.2620    3.3450 hc        1 MOL      0.060362
    105 H46        -1.3630    6.0350    2.7900 hc        1 MOL      0.060362
    106 H47        -1.9710    3.7300    4.7590 hc        1 MOL      0.060362
    107 H48        -2.3930    3.7770    3.1020 hc        1 MOL      0.060362
    108 H49        -1.5640    2.3370    3.6140 hc        1 MOL      0.060362
    109 N10        -1.2970    2.8530    0.4450 n         1 MOL     -0.036434
    110 C35        -2.3850    3.0300   -0.4600 c3        1 MOL      0.052728
    111 C36        -3.8120    2.8100    0.1560 c         1 MOL      0.401997
    112 O17        -3.8970    2.3480    1.2970 o         1 MOL     -0.370027
    113 C37        -2.1530    2.1800   -1.8260 c3        1 MOL      0.070833
    114 C38        -2.4460    0.7230   -1.7650 c         1 MOL      0.755049
    115 N11        -1.4290   -0.0850   -2.0400 n         1 MOL     -0.741497
    116 O18        -3.5900    0.3500   -1.5210 o         1 MOL     -0.649444
    117 H50        -1.0610    1.9340    0.7720 hn        1 MOL     -0.017807
    118 H51        -2.2940    4.0940   -0.6950 h1        1 MOL      0.033737
    119 H52        -1.1040    2.3070   -2.0900 hc        1 MOL     -0.033674
    120 H53        -2.7560    2.5970   -2.6320 hc        1 MOL     -0.033674
    121 H54        -0.4730    0.2500   -1.9940 hn        1 MOL      0.350417
    122 H55        -1.7020   -1.0330   -1.8360 hn        1 MOL      0.350417
    123 N12        -4.8820    3.0790   -0.5840 n         1 MOL     -0.548700
    124 C39        -6.2350    3.0500   -0.0570 c3        1 MOL      0.215850
    125 C40        -6.7050    1.6350    0.4560 c         1 MOL      0.239083
    126 O19        -7.5320    1.5730    1.3540 o         1 MOL     -0.529538
    127 C41        -7.2310    3.6030   -1.0820 c3        1 MOL     -0.115325
    128 C42        -7.9250    2.6090   -1.9530 ca        1 MOL      0.092162
    129 C43        -9.2030    2.1170   -1.6290 ca        1 MOL     -0.257542
    130 C44        -7.2710    2.0610   -3.0980 ca        1 MOL     -0.257542
    131 C45        -9.8210    1.1130   -2.4100 ca        1 MOL     -0.182458
    132 C46        -7.9910    1.1130   -3.9310 ca        1 MOL     -0.182458
    133 C47        -9.2700    0.7340   -3.6780 ca        1 MOL      0.228854
    134 O20        -9.8690   -0.1840   -4.4890 oh        1 MOL     -0.461420
    135 H56        -4.6710    3.2230   -1.5590 hn        1 MOL      0.313716
    136 H57        -6.3060    3.6990    0.8140 h1        1 MOL      0.061536
    137 H58        -6.7070    4.2810   -1.7540 hc        1 MOL      0.034817
    138 H59        -7.9520    4.1980   -0.5230 hc        1 MOL      0.034817
    139 H60        -9.6650    2.5530   -0.7580 ha        1 MOL      0.159062
    140 H61        -6.2680    2.3800   -3.3530 ha        1 MOL      0.159062
    141 H62       -10.8030    0.7670   -2.1140 ha        1 MOL      0.138458
    142 H63        -7.3640    0.7580   -4.7420 ha        1 MOL      0.138458
    143 H64       -10.7150   -0.5380   -4.2210 ho        1 MOL      0.364899
    144 N13        -6.2630    0.5180   -0.0960 n         1 MOL      0.076477
    145 C48        -6.5290   -0.7790    0.5120 c3        1 MOL     -0.167381
    146 C49        -5.7410   -1.1550    1.7720 c         1 MOL      0.426475
    147 O21        -6.2340   -1.8590    2.6400 o         1 MOL     -0.535508
    148 C50        -6.2520   -1.8930   -0.4910 c3        1 MOL      0.057742
    149 C51        -6.9410   -1.7270   -1.9140 c3        1 MOL     -0.112942
    150 C52        -6.7440   -2.8620   -2.9260 c         1 MOL      0.714585
    151 O22        -5.6690   -2.9450   -3.6250 o         1 MOL     -0.745476
    152 O23        -7.6330   -3.7350   -2.9570 o         1 MOL     -0.745476
    153 H65        -5.6360    0.6890   -0.8750 hn        1 MOL      0.244467
    154 H66        -7.5560   -0.9960    0.7990 h1        1 MOL      0.105796
    155 H67        -6.6200   -2.8640   -0.1390 hc        1 MOL      0.006131
    156 H68        -5.1960   -2.0670   -0.6860 hc        1 MOL      0.006131
    157 H69        -6.4850   -0.8290   -2.3200 hc        1 MOL      0.006599
    158 H70        -8.0020   -1.6180   -1.6690 hc        1 MOL      0.006599
    159 N14        -4.4760   -0.8080    1.8160 n         1 MOL     -0.006686
    160 C53        -3.5520   -0.9710    2.9700 c3        1 MOL     -0.046122
    161 C54        -3.9540   -0.2150    4.1990 c         1 MOL      0.371410
    162 O24        -4.0600   -0.7550    5.3060 o         1 MOL     -0.548898
    163 C55        -2.1290   -0.5330    2.4760 c3        1 MOL     -0.082606
    164 C56        -1.6280   -1.2550    1.2660 c3        1 MOL      0.046109
    165 C57        -0.2900   -0.7620    0.9110 c         1 MOL      0.853906
    166 O25         0.0470    0.4130    1.1120 o         1 MOL     -0.784274
    167 O26         0.4700   -1.5970    0.3960 o         1 MOL     -0.784274
    168 H71        -4.0880   -0.3460    1.0040 hn        1 MOL     -0.189325
    169 H72        -3.4750   -2.0200    3.2600 h1        1 MOL      0.080392
    170 H73        -1.3660   -0.6300    3.2560 hc        1 MOL      0.041904
    171 H74        -2.1030    0.5510    2.3010 hc        1 MOL      0.041904
    172 H75        -2.2900   -0.9570    0.4410 hc        1 MOL      0.006336
    173 H76        -1.7370   -2.3100    1.5050 hc        1 MOL      0.006336
    174 N15        -4.2700    1.0730    4.0030 n         1 MOL      0.016819
    175 C58        -4.8730    1.9780    4.9460 c3        1 MOL     -0.108397
    176 H77        -4.0960    2.5710    5.4280 h1        1 MOL      0.049662
    177 H78        -5.5650    2.6400    4.4250 h1        1 MOL      0.049662
    178 H79        -5.4150    1.4080    5.7010 h1        1 MOL      0.049662
    179 H80        -4.0700    1.4130    3.0780 hn        1 MOL      0.055142
    180 Ca1         2.6460   -0.2370    0.4350 Ca        1 MOL      1.768051
    181 O27         2.7690   -0.2600    3.1720 oh        1 MOL     -0.897675
    182 H81         3.4190    0.3180    3.5670 ho        1 MOL      0.426393
    183 H82         2.4750   -0.8280    3.8810 ho        1 MOL      0.426393
    184 O28         5.1050   -0.4990    1.3720 oh        1 MOL     -0.897675
    185 H83         5.3310   -1.4200    1.2840 ho        1 MOL      0.426393
    186 H84         5.5910   -0.2120    2.1510 ho        1 MOL      0.426393
    187 O29         1.6260    0.8790   -1.7160 oh        1 MOL     -0.897675
    188 H85         1.7170    0.2120   -2.4020 ho        1 MOL      0.426393
    189 H86         2.2180    1.5720   -1.9850 ho        1 MOL      0.426393
@<TRIPOS>BOND
     1    1    2 1   
     2    1    4 1   
     3    1    5 1   
     4    1    6 1   
     5    2    3 2   
     6    2    7 1   
     7    7    8 1   
     8    7   15 1   
     9    8    9 1   
    10    8   11 1   
    11    8   16 1   
    12    9   10 2   
    13    9   19 1   
    14   11   12 1   
    15   11   17 1   
    16   11   18 1   
    17   12   13 1   
    18   12   14 1   
    19   19   20 1   
    20   19   27 1   
    21   20   21 1   
    22   20   23 1   
    23   20   28 1   
    24   21   22 2   
    25   21   38 1   
    26   23   24 1   
    27   23   25 1   
    28   23   29 1   
    29   24   26 1   
    30   24   30 1   
    31   24   31 1   
    32   25   32 1   
    33   25   33 1   
    34   25   34 1   
    35   26   35 1   
    36   26   36 1   
    37   26   37 1   
    38   38   39 1   
    39   38   46 1   
    40   39   40 1   
    41   39   42 1   
    42   39   47 1   
    43   40   41 2   
    44   40   50 1   
    45   42   43 1   
    46   42   48 1   
    47   42   49 1   
    48   43   44 1   
    49   43   45 1   
    50   50   51 1   
    51   50   54 1   
    52   51   52 1   
    53   51   55 1   
    54   51   56 1   
    55   52   53 2   
    56   52   57 1   
    57   57   58 1   
    58   57   65 1   
    59   58   59 1   
    60   58   61 1   
    61   58   66 1   
    62   59   60 2   
    63   59   69 1   
    64   61   62 1   
    65   61   67 1   
    66   61   68 1   
    67   62   63 1   
    68   62   64 1   
    69   69   70 1   
    70   69   73 1   
    71   70   71 1   
    72   70   74 1   
    73   70   75 1   
    74   71   72 2   
    75   71   76 1   
    76   76   77 1   
    77   76   85 1   
    78   77   78 1   
    79   77   80 1   
    80   77   86 1   
    81   78   79 2   
    82   78   93 1   
    83   80   81 1   
    84   80   87 1   
    85   80   88 1   
    86   81   82 1   
    87   81   89 1   
    88   81   90 1   
    89   82   83 1   
    90   82   84 2   
    91   83   91 1   
    92   83   92 1   
    93   93   94 1   
    94   93  100 1   
    95   94   95 1   
    96   94   97 1   
    97   94  101 1   
    98   95   96 2   
    99   95  109 1   
   100   97   98 1   
   101   97   99 1   
   102   97  102 1   
   103   98  103 1   
   104   98  104 1   
   105   98  105 1   
   106   99  106 1   
   107   99  107 1   
   108   99  108 1   
   109  109  110 1   
   110  109  117 1   
   111  110  111 1   
   112  110  113 1   
   113  110  118 1   
   114  111  112 2   
   115  111  123 1   
   116  113  114 1   
   117  113  119 1   
   118  113  120 1   
   119  114  115 1   
   120  114  116 2   
   121  115  121 1   
   122  115  122 1   
   123  123  124 1   
   124  123  135 1   
   125  124  125 1   
   126  124  127 1   
   127  124  136 1   
   128  125  126 2   
   129  125  144 1   
   130  127  128 1   
   131  127  137 1   
   132  127  138 1   
   133  128  129 ar  
   134  128  130 ar  
   135  129  131 ar  
   136  129  139 1   
   137  130  132 ar  
   138  130  140 1   
   139  131  133 ar  
   140  131  141 1   
   141  132  133 ar  
   142  132  142 1   
   143  133  134 1   
   144  134  143 1   
   145  144  145 1   
   146  144  153 1   
   147  145  146 1   
   148  145  148 1   
   149  145  154 1   
   150  146  147 2   
   151  146  159 1   
   152  148  149 1   
   153  148  155 1   
   154  148  156 1   
   155  149  150 1   
   156  149  157 1   
   157  149  158 1   
   158  150  151 1   
   159  150  152 1   
   160  159  160 1   
   161  159  168 1   
   162  160  161 1   
   163  160  163 1   
   164  160  169 1   
   165  161  162 2   
   166  161  174 1   
   167  163  164 1   
   168  163  170 1   
   169  163  171 1   
   170  164  165 1   
   171  164  172 1   
   172  164  173 1   
   173  165  166 1   
   174  165  167 1   
   175  174  175 1   
   176  174  179 1   
   177  175  176 1   
   178  175  177 1   
   179  175  178 1   
   180  181  182 1   
   181  181  183 1   
   182  184  185 1   
   183  184  186 1   
   184  187  188 1   
   185  187  189 1   
@<TRIPOS>SUBSTRUCTURE
     1 MOL         1 TEMP              0 ****  ****    0 ROOT
