@<TRIPOS>MOLECULE
MOL
  189   185     1     0     0
SMALL
resp


@<TRIPOS>ATOM
      1 C1         -0.0840    2.1560    6.1870 c3        1 MOL     -0.322476
      2 C2         -0.3430    1.8360    4.7200 c         1 MOL      0.779084
      3 O1          0.4720    2.2600    3.8720 o         1 MOL     -0.634844
      4 H1          0.9860    2.2810    6.3470 hc        1 MOL      0.079628
      5 H2         -0.6010    3.0770    6.4550 hc        1 MOL      0.079628
      6 H3         -0.4510    1.3380    6.8080 hc        1 MOL      0.079628
      7 N1         -1.5220    1.1730    4.4370 n         1 MOL     -0.604312
      8 C3         -2.0850    1.1440    3.0610 c3        1 MOL      0.015650
      9 C4         -2.5100    2.5390    2.5110 c         1 MOL      0.483949
     10 O2         -3.6320    3.0470    2.7900 o         1 MOL     -0.525635
     11 C5         -3.2310    0.1370    3.0690 c3        1 MOL     -0.005879
     12 C6         -3.9210   -0.0310    1.6790 c         1 MOL      0.683563
     13 O3         -3.2200    0.2340    0.6690 o         1 MOL     -0.674060
     14 O4         -5.1080   -0.5430    1.6130 o         1 MOL     -0.674060
     15 H4         -2.0670    0.7440    5.1750 hn        1 MOL      0.335531
     16 H5         -1.3050    0.7950    2.3980 h1        1 MOL     -0.045883
     17 H6         -4.0650    0.3150    3.7430 hc        1 MOL      0.012285
     18 H7         -2.9750   -0.8720    3.3950 hc        1 MOL      0.012285
     19 N2         -1.6850    3.0150    1.5750 n         1 MOL     -0.225747
     20 C7         -1.6410    4.4120    1.1770 c3        1 MOL     -0.087093
     21 C8         -2.5820    4.6350    0.0300 c         1 MOL      0.496662
     22 O5         -2.9360    5.7390   -0.2960 o         1 MOL     -0.601993
     23 C9         -0.1580    4.7520    0.8330 c3        1 MOL      0.063448
     24 C10         0.2410    6.1730    0.4500 c3        1 MOL     -0.152073
     25 C11        -0.2140    7.0770    1.5390 c3        1 MOL     -0.074492
     26 C12        -0.8130    8.3620    0.9920 c3        1 MOL      0.026550
     27 N3          0.1360    9.4050    0.4830 n4        1 MOL     -0.326878
     28 H8         -0.9030    2.5030    1.1850 hn        1 MOL      0.246692
     29 H9         -1.9950    5.0000    2.0270 h1        1 MOL      0.092503
     30 H10         0.0830    4.0580    0.0350 hc        1 MOL      0.060809
     31 H11         0.4030    4.4410    1.7210 hc        1 MOL      0.060809
     32 H12        -0.1790    6.5020   -0.4930 hc        1 MOL      0.033684
     33 H13         1.3210    6.2260    0.2990 hc        1 MOL      0.033684
     34 H14         0.5910    7.2620    2.2570 hc        1 MOL      0.065605
     35 H15        -1.0310    6.6110    2.0840 hc        1 MOL      0.065605
     36 H16        -1.4650    8.7550    1.7790 hx        1 MOL      0.092424
     37 H17        -1.4540    8.0780    0.1450 hx        1 MOL      0.092424
     38 H18        -0.3230   10.2740    0.2660 hn        1 MOL      0.314325
     39 H19         0.9850    9.4540    1.0220 hn        1 MOL      0.314325
     40 H20         0.5100    9.0870   -0.3970 hn        1 MOL      0.314325
     41 N4         -3.0960    3.6100   -0.6090 n         1 MOL     -0.144565
     42 C13        -4.1320    3.7580   -1.6830 c3        1 MOL      0.088181
     43 C14        -5.3710    2.8960   -1.5060 c         1 MOL      0.422579
     44 O6         -6.2960    2.8480   -2.2870 o         1 MOL     -0.512109
     45 C15        -3.5990    3.6660   -3.1470 c3        1 MOL     -0.251316
     46 C16        -2.5430    2.6000   -3.3400 c         1 MOL      0.866434
     47 O7         -1.5890    2.7530   -4.1740 o         1 MOL     -0.755799
     48 O8         -2.6570    1.5930   -2.6050 o         1 MOL     -0.755799
     49 H21        -2.7870    2.6920   -0.3170 hn        1 MOL      0.031164
     50 H22        -4.5570    4.7450   -1.5210 h1        1 MOL      0.078365
     51 H23        -3.1030    4.6270   -3.3090 hc        1 MOL      0.049741
     52 H24        -4.4040    3.6100   -3.8810 hc        1 MOL      0.049741
     53 N5         -5.4560    2.1950   -0.3470 n         1 MOL     -0.262833
     54 C17        -6.7010    1.7060    0.2940 c3        1 MOL     -0.071548
     55 C18        -7.2040    0.4150   -0.4710 c         1 MOL      0.473369
     56 O9         -8.3740    0.1680   -0.4550 o         1 MOL     -0.567606
     57 H25        -4.7180    2.2180    0.3440 hn        1 MOL      0.149364
     58 H26        -7.4950    2.4550    0.3300 h1        1 MOL      0.085360
     59 H27        -6.4910    1.4880    1.3400 h1        1 MOL      0.085360
     60 N6         -6.3150   -0.3090   -1.1600 n         1 MOL     -0.161303
     61 C19        -6.6700   -1.5500   -1.8540 c3        1 MOL     -0.041726
     62 C20        -6.7810   -2.7970   -0.9600 c         1 MOL      0.469027
     63 O10        -7.1620   -3.9150   -1.3820 o         1 MOL     -0.549104
     64 C21        -5.7700   -1.7820   -3.0590 c3        1 MOL     -0.253616
     65 C22        -4.3100   -1.7020   -2.6780 c         1 MOL      0.755681
     66 O11        -3.9080   -1.9530   -1.5270 o         1 MOL     -0.699424
     67 O12        -3.4650   -1.3430   -3.5210 o         1 MOL     -0.699424
     68 H28        -5.3390   -0.0450   -1.1780 hn        1 MOL      0.187986
     69 H29        -7.7190   -1.5030   -2.1380 h1        1 MOL      0.104760
     70 H30        -5.9670   -1.0070   -3.8030 hc        1 MOL      0.077083
     71 H31        -5.9510   -2.7950   -3.4190 hc        1 MOL      0.077083
     72 N7         -6.4890   -2.5030    0.3190 n         1 MOL     -0.270678
     73 C23        -6.3590   -3.5000    1.4060 c3        1 MOL     -0.031827
     74 C24        -5.0370   -4.2810    1.4230 c         1 MOL      0.518082
     75 O13        -5.1730   -5.4340    1.7670 o         1 MOL     -0.578510
     76 H32        -5.9560   -1.6510    0.4400 hn        1 MOL      0.230849
     77 H33        -7.2240   -4.1720    1.3910 h1        1 MOL      0.055280
     78 H34        -6.3440   -2.9470    2.3480 h1        1 MOL      0.055280
     79 N8         -3.9560   -3.7760    0.9090 n         1 MOL     -0.167254
     80 C25        -2.6580   -4.4430    0.7470 c3        1 MOL     -0.107366
     81 C26        -1.4800   -3.4160    0.8980 c         1 MOL      0.512361
     82 O14        -1.6880   -2.3100    0.4840 o         1 MOL     -0.526967
     83 C27        -2.4600   -5.2490   -0.5150 c3        1 MOL      0.371249
     84 C28        -3.3140   -6.5430   -0.6700 c3        1 MOL     -0.427866
     85 O15        -2.8150   -4.4460   -1.6980 oh        1 MOL     -0.619340
     86 H35        -4.0190   -2.8100    0.6010 hn        1 MOL      0.126231
     87 H36        -2.5640   -5.0630    1.6280 h1        1 MOL      0.063096
     88 H37        -1.4190   -5.5200   -0.6640 h1        1 MOL      0.019088
     89 H38        -3.4240   -3.7300   -1.4980 ho        1 MOL      0.402717
     90 H39        -3.1030   -7.1380   -1.5540 hc        1 MOL      0.116808
     91 H40        -3.0690   -7.1580    0.2100 hc        1 MOL      0.116808
     92 H41        -4.3830   -6.3790   -0.7040 hc        1 MOL      0.116808
     93 N9         -0.3470   -3.8900    1.2720 n         1 MOL     -0.503863
     94 C29         0.9240   -3.1250    1.3580 c3        1 MOL      0.072495
     95 C30         2.0420   -3.6930    0.3830 c         1 MOL      0.515879
     96 O16         2.6880   -4.7250    0.5360 o         1 MOL     -0.508959
     97 C31         1.3110   -3.0850    2.8560 c3        1 MOL      0.081713
     98 C32         0.4850   -2.0540    3.5900 c3        1 MOL      0.416204
     99 C33         2.8210   -3.1990    3.1720 c3        1 MOL     -0.566735
    100 C34         0.6270   -2.2040    5.1320 c3        1 MOL     -0.412227
    101 H42        -0.3640   -4.8830    1.4440 hn        1 MOL      0.285955
    102 H43         0.7000   -2.0880    1.1250 h1        1 MOL      0.043541
    103 H44         0.8760   -3.9690    3.3020 hc        1 MOL      0.011301
    104 H45        -0.5380   -2.3600    3.3700 hc        1 MOL     -0.061950
    105 H46         0.7780   -1.0330    3.3350 hc        1 MOL     -0.061950
    106 H47         2.9700   -4.2580    2.9900 hc        1 MOL      0.120840
    107 H48         3.3920   -2.6080    2.4580 hc        1 MOL      0.120840
    108 H49         2.9790   -3.0690    4.2440 hc        1 MOL      0.120840
    109 H50         0.8120   -3.2390    5.4390 hc        1 MOL      0.086645
    110 H51         1.4990   -1.5890    5.3390 hc        1 MOL      0.086645
    111 H52        -0.2370   -1.8020    5.6500 hc        1 MOL      0.086645
    112 N10         2.2790   -2.8450   -0.6310 n         1 MOL     -0.360968
    113 C35         3.4250   -2.9570   -1.5200 c3        1 MOL     -0.101812
    114 C36         4.6470   -2.5680   -0.6500 c         1 MOL      0.223812
    115 O17         4.5100   -1.9510    0.3750 o         1 MOL     -0.055971
    116 C37         3.2400   -1.9950   -2.6550 c3        1 MOL      0.397768
    117 C38         2.2280   -2.5510   -3.7220 c3        1 MOL     -0.354764
    118 O18         2.8280   -0.7140   -2.1380 oh        1 MOL     -0.593796
    119 H53         1.7520   -1.9930   -0.7500 hn        1 MOL      0.240281
    120 H54         3.5510   -3.9670   -1.9080 h1        1 MOL      0.106883
    121 H55         4.1530   -1.9890   -3.2540 h1        1 MOL     -0.015005
    122 H56         2.2330   -0.8600   -1.4000 ho        1 MOL      0.279780
    123 H57         1.3170   -2.7590   -3.1650 hc        1 MOL      0.099174
    124 H58         2.0340   -1.8150   -4.5060 hc        1 MOL      0.099174
    125 H59         2.5210   -3.5080   -4.1470 hc        1 MOL      0.099174
    126 N11         5.8580   -2.8080   -1.1770 n         1 MOL     -0.327780
    127 C39         7.2250   -2.5130   -0.6370 c3        1 MOL      0.000388
    128 C40         7.3420   -1.1210    0.0820 c         1 MOL      0.387691
    129 O19         7.6760   -1.2150    1.2440 o         1 MOL     -0.488062
    130 C41         8.3120   -2.5770   -1.7030 c3        1 MOL      0.220978
    131 C42         8.8120   -4.0000   -2.1760 c3        1 MOL     -0.316265
    132 O20         7.7840   -1.9880   -2.8820 oh        1 MOL     -0.641648
    133 H60         5.8870   -3.2110   -2.1010 hn        1 MOL      0.271724
    134 H61         7.3900   -3.2420    0.1490 h1        1 MOL      0.110624
    135 H62         9.1430   -1.9870   -1.3090 h1        1 MOL      0.049606
    136 H63         8.4890   -1.6320   -3.4290 ho        1 MOL      0.412619
    137 H64         8.8750   -4.5940   -1.2720 hc        1 MOL      0.096273
    138 H65         8.0850   -4.4970   -2.8260 hc        1 MOL      0.096273
    139 H66         9.8040   -3.9930   -2.6230 hc        1 MOL      0.096273
    140 N12         7.0780   -0.0130   -0.5840 n         1 MOL     -0.198549
    141 C43         7.1690    1.3620   -0.1060 c3        1 MOL     -0.129850
    142 C44         6.0720    1.7530    0.8930 c         1 MOL      0.482763
    143 O21         6.2420    2.6910    1.6850 o         1 MOL     -0.500378
    144 C45         7.2790    2.3240   -1.2970 c3        1 MOL     -0.248275
    145 C46         6.0150    2.5200   -2.1300 c3        1 MOL      0.208423
    146 C47         6.2880    3.1610   -3.5220 c3        1 MOL     -0.148898
    147 C48         4.9200    2.9810   -4.3180 c3        1 MOL     -0.022619
    148 N13         5.0300    3.7010   -5.6020 n4        1 MOL     -0.107740
    149 H67         6.7470   -0.1180   -1.5360 hn        1 MOL      0.185955
    150 H68         8.0600    1.4480    0.5090 h1        1 MOL      0.145085
    151 H69         8.1220    2.0540   -1.9420 hc        1 MOL      0.086191
    152 H70         7.3650    3.3370   -0.8950 hc        1 MOL      0.086191
    153 H71         5.3640    3.1850   -1.5530 hc        1 MOL      0.017473
    154 H72         5.5400    1.5570   -2.2980 hc        1 MOL      0.017473
    155 H73         7.0270    2.5240   -4.0210 hc        1 MOL      0.049150
    156 H74         6.6410    4.1850   -3.4620 hc        1 MOL      0.049150
    157 H75         4.0800    3.4690   -3.8220 hx        1 MOL      0.105390
    158 H76         4.7330    1.9190   -4.4270 hx        1 MOL      0.105390
    159 H77         5.7950    3.3540   -6.1700 hn        1 MOL      0.254162
    160 H78         4.2400    3.4960   -6.1930 hn        1 MOL      0.254162
    161 H79         5.2140    4.6900   -5.5610 hn        1 MOL      0.254162
    162 N14         4.9490    0.9840    0.8620 n         1 MOL     -0.314457
    163 C49         3.9770    0.9610    1.9420 c3        1 MOL     -0.045265
    164 C50         4.4550    0.2140    3.2290 c         1 MOL      0.369295
    165 O22         4.3040    0.8030    4.3180 o         1 MOL     -0.529965
    166 C51         2.5790    0.6400    1.4630 c3        1 MOL      0.343423
    167 C52         2.0300    1.4670    0.3090 c3        1 MOL     -0.023272
    168 C53         0.7170    0.8870   -0.2000 c         1 MOL      0.755708
    169 O23         0.7420   -0.3450   -0.4820 o         1 MOL     -0.713021
    170 O24        -0.3520    1.5200   -0.4570 o         1 MOL     -0.713021
    171 H80         4.8960    0.1670    0.2670 hn        1 MOL      0.133327
    172 H81         3.9330    2.0040    2.2560 h1        1 MOL      0.092135
    173 H82         1.8270    0.6540    2.2410 hc        1 MOL     -0.064924
    174 H83         2.6590   -0.4290    1.2350 hc        1 MOL     -0.064924
    175 H84         2.6710    1.4980   -0.5790 hc        1 MOL     -0.079862
    176 H85         1.8960    2.4720    0.7010 hc        1 MOL     -0.079862
    177 N15         5.1750   -0.8910    3.1150 n         1 MOL      0.084816
    178 C54         5.8410   -1.4290    4.2470 c3        1 MOL     -0.420827
    179 H86         5.5860   -0.8440    5.1300 h1        1 MOL      0.137116
    180 H87         5.5300   -2.4630    4.3950 h1        1 MOL      0.137116
    181 H88         6.9190   -1.3930    4.0870 h1        1 MOL      0.137116
    182 H89         5.3750   -1.2420    2.1840 hn        1 MOL      0.059217
    183 Ca1        -1.7680   -0.4640   -1.4580 Ca        1 MOL      1.757497
    184 O25        -0.9190   -2.7480   -2.4050 oh        1 MOL     -0.838794
    185 H90        -1.6110   -3.3020   -2.0490 ho        1 MOL      0.382373
    186 H91        -0.6310   -3.1850   -3.1990 ho        1 MOL      0.382373
    187 O26        -0.6460    0.2120   -3.7550 oh        1 MOL     -0.838794
    188 H92        -0.1630   -0.0700   -4.5340 ho        1 MOL      0.382373
    189 H93        -0.7990    1.1510   -3.8980 ho        1 MOL      0.382373
@<TRIPOS>BOND
     1    1    2 1   
     2    1    4 1   
     3    1    5 1   
     4    1    6 1   
     5    2    3 2   
     6    2    7 1   
     7    7    8 1   
     8    7   15 1   
     9    8    9 1   
    10    8   11 1   
    11    8   16 1   
    12    9   10 2   
    13    9   19 1   
    14   11   12 1   
    15   11   17 1   
    16   11   18 1   
    17   12   13 1   
    18   12   14 1   
    19   19   20 1   
    20   19   28 1   
    21   20   21 1   
    22   20   23 1   
    23   20   29 1   
    24   21   22 2   
    25   21   41 1   
    26   23   24 1   
    27   23   30 1   
    28   23   31 1   
    29   24   25 1   
    30   24   32 1   
    31   24   33 1   
    32   25   26 1   
    33   25   34 1   
    34   25   35 1   
    35   26   27 1   
    36   26   36 1   
    37   26   37 1   
    38   27   38 1   
    39   27   39 1   
    40   27   40 1   
    41   41   42 1   
    42   41   49 1   
    43   42   43 1   
    44   42   45 1   
    45   42   50 1   
    46   43   44 2   
    47   43   53 1   
    48   45   46 1   
    49   45   51 1   
    50   45   52 1   
    51   46   47 1   
    52   46   48 1   
    53   53   54 1   
    54   53   57 1   
    55   54   55 1   
    56   54   58 1   
    57   54   59 1   
    58   55   56 2   
    59   55   60 1   
    60   60   61 1   
    61   60   68 1   
    62   61   62 1   
    63   61   64 1   
    64   61   69 1   
    65   62   63 2   
    66   62   72 1   
    67   64   65 1   
    68   64   70 1   
    69   64   71 1   
    70   65   66 1   
    71   65   67 1   
    72   72   73 1   
    73   72   76 1   
    74   73   74 1   
    75   73   77 1   
    76   73   78 1   
    77   74   75 2   
    78   74   79 1   
    79   79   80 1   
    80   79   86 1   
    81   80   81 1   
    82   80   83 1   
    83   80   87 1   
    84   81   82 2   
    85   81   93 1   
    86   83   84 1   
    87   83   85 1   
    88   83   88 1   
    89   84   90 1   
    90   84   91 1   
    91   84   92 1   
    92   85   89 1   
    93   93   94 1   
    94   93  101 1   
    95   94   95 1   
    96   94   97 1   
    97   94  102 1   
    98   95   96 2   
    99   95  112 1   
   100   97   98 1   
   101   97   99 1   
   102   97  103 1   
   103   98  100 1   
   104   98  104 1   
   105   98  105 1   
   106   99  106 1   
   107   99  107 1   
   108   99  108 1   
   109  100  109 1   
   110  100  110 1   
   111  100  111 1   
   112  112  113 1   
   113  112  119 1   
   114  113  114 1   
   115  113  116 1   
   116  113  120 1   
   117  114  115 2   
   118  114  126 1   
   119  116  117 1   
   120  116  118 1   
   121  116  121 1   
   122  117  123 1   
   123  117  124 1   
   124  117  125 1   
   125  118  122 1   
   126  126  127 1   
   127  126  133 1   
   128  127  128 1   
   129  127  130 1   
   130  127  134 1   
   131  128  129 2   
   132  128  140 1   
   133  130  131 1   
   134  130  132 1   
   135  130  135 1   
   136  131  137 1   
   137  131  138 1   
   138  131  139 1   
   139  132  136 1   
   140  140  141 1   
   141  140  149 1   
   142  141  142 1   
   143  141  144 1   
   144  141  150 1   
   145  142  143 2   
   146  142  162 1   
   147  144  145 1   
   148  144  151 1   
   149  144  152 1   
   150  145  146 1   
   151  145  153 1   
   152  145  154 1   
   153  146  147 1   
   154  146  155 1   
   155  146  156 1   
   156  147  148 1   
   157  147  157 1   
   158  147  158 1   
   159  148  159 1   
   160  148  160 1   
   161  148  161 1   
   162  162  163 1   
   163  162  171 1   
   164  163  164 1   
   165  163  166 1   
   166  163  172 1   
   167  164  165 2   
   168  164  177 1   
   169  166  167 1   
   170  166  173 1   
   171  166  174 1   
   172  167  168 1   
   173  167  175 1   
   174  167  176 1   
   175  168  169 1   
   176  168  170 1   
   177  177  178 1   
   178  177  182 1   
   179  178  179 1   
   180  178  180 1   
   181  178  181 1   
   182  184  185 1   
   183  184  186 1   
   184  187  188 1   
   185  187  189 1   
@<TRIPOS>SUBSTRUCTURE
     1 MOL         1 TEMP              0 ****  ****    0 ROOT
