@<TRIPOS>MOLECULE
MOL
  179   176     1     0     0
SMALL
resp


@<TRIPOS>ATOM
      1 C1          1.3430    2.9510    6.1530 c3        1 MOL     -0.324333
      2 C2          0.7600    2.6100    4.8070 c         1 MOL      0.721321
      3 O1          1.5550    2.5680    3.8810 o         1 MOL     -0.609362
      4 H1          1.6740    3.9890    6.1510 hc        1 MOL      0.087334
      5 H2          0.5850    2.8130    6.9240 hc        1 MOL      0.087334
      6 H3          2.1930    2.2990    6.3570 hc        1 MOL      0.087334
      7 N1         -0.5260    2.5390    4.4590 n         1 MOL     -0.628376
      8 C3         -1.0380    2.3770    3.0740 c3        1 MOL      0.073395
      9 C4         -0.9570    3.7000    2.3230 c         1 MOL      0.719306
     10 O2         -1.5370    4.7010    2.8270 o         1 MOL     -0.612481
     11 C5         -2.4000    1.6710    3.0310 c3        1 MOL     -0.023204
     12 C6         -3.0800    1.4730    1.6980 c         1 MOL      0.561071
     13 O3         -2.6550    1.7820    0.5340 o         1 MOL     -0.621508
     14 O4         -4.1610    0.9000    1.7190 o         1 MOL     -0.621508
     15 H4         -1.2020    2.6150    5.2020 hn        1 MOL      0.321649
     16 H5         -0.3330    1.6930    2.5960 h1        1 MOL      0.009285
     17 H6         -3.0750    2.2080    3.7030 hc        1 MOL      0.026584
     18 H7         -2.3680    0.6590    3.4400 hc        1 MOL      0.026584
     19 N2         -0.1970    3.8480    1.2420 n         1 MOL     -0.280650
     20 C7          0.0630    5.1500    0.5400 c3        1 MOL     -0.288779
     21 C8         -1.1880    5.7560   -0.2060 c         1 MOL      0.672059
     22 O5         -1.2920    6.9600   -0.4110 o         1 MOL     -0.579729
     23 C9          1.1460    4.9250   -0.5080 c3        1 MOL      0.415378
     24 C10         1.8040    6.2870   -0.7900 c3        1 MOL     -0.305923
     25 C11         3.1990    5.9050   -1.4050 c3        1 MOL     -0.008966
     26 C12         3.9040    7.0660   -1.9540 c3        1 MOL     -0.035000
     27 N3          5.3280    6.8170   -2.2990 n4        1 MOL     -0.318358
     28 H8          0.2910    3.0570    0.8560 hn        1 MOL      0.164202
     29 H9          0.3980    5.8870    1.2620 h1        1 MOL      0.129966
     30 H10         0.8190    4.4090   -1.4010 hc        1 MOL     -0.028174
     31 H11         1.9150    4.3110   -0.0360 hc        1 MOL     -0.028174
     32 H12         1.9070    6.8760    0.1180 hc        1 MOL      0.084784
     33 H13         1.1560    6.7950   -1.5040 hc        1 MOL      0.084784
     34 H14         3.1900    5.0700   -2.1020 hc        1 MOL      0.068779
     35 H15         3.7770    5.5350   -0.5480 hc        1 MOL      0.068779
     36 H16         4.0230    7.8160   -1.1670 hx        1 MOL      0.104035
     37 H17         3.3740    7.4180   -2.8380 hx        1 MOL      0.104035
     38 H18         5.9990    6.9210   -1.5460 hn        1 MOL      0.313478
     39 H19         5.5680    5.9240   -2.6930 hn        1 MOL      0.313478
     40 H20         5.5370    7.4660   -3.0480 hn        1 MOL      0.313478
     41 N4         -2.1380    4.8610   -0.6130 n         1 MOL     -0.301359
     42 C13        -3.2870    5.1510   -1.5190 c3        1 MOL      0.051886
     43 C14        -4.6750    4.6690   -1.0160 c         1 MOL      0.486929
     44 O6         -5.7580    5.0300   -1.4920 o         1 MOL     -0.540656
     45 C15        -2.9160    4.4630   -2.8490 c3        1 MOL     -0.206693
     46 C16        -2.5000    2.9950   -2.5800 c         1 MOL      0.678509
     47 O7         -3.3750    2.0830   -2.6170 o         1 MOL     -0.680112
     48 O8         -1.2990    2.7280   -2.3050 o         1 MOL     -0.680112
     49 H21        -1.9900    3.8770   -0.4290 hn        1 MOL     -0.088747
     50 H22        -3.3600    6.2110   -1.7640 h1        1 MOL      0.085753
     51 H23        -2.0490    4.9430   -3.2860 hc        1 MOL      0.059416
     52 H24        -3.7920    4.5320   -3.5060 hc        1 MOL      0.059416
     53 N5         -4.7120    3.7640   -0.0510 n         1 MOL     -0.295625
     54 C17        -5.9490    3.3300    0.6290 c3        1 MOL     -0.187352
     55 C18        -6.7240    2.2630   -0.0560 c         1 MOL      0.571054
     56 O9         -7.9200    2.2100    0.1150 o         1 MOL     -0.563118
     57 H25        -3.9110    3.1670    0.0760 hn        1 MOL      0.300994
     58 H26        -6.5470    4.2250    0.7960 h1        1 MOL      0.118108
     59 H27        -5.7890    2.9000    1.6170 h1        1 MOL      0.118108
     60 N6         -6.0100    1.3180   -0.7090 n         1 MOL     -0.079452
     61 C19        -6.7700    0.1160   -1.0740 c3        1 MOL     -0.072205
     62 C20        -6.8980   -0.9350   -0.0520 c         1 MOL      0.372059
     63 O10        -7.7260   -1.8330   -0.1290 o         1 MOL     -0.540094
     64 C21        -6.2360   -0.4370   -2.4150 c3        1 MOL     -0.064178
     65 C22        -4.9050   -1.1960   -2.3980 c         1 MOL      0.637079
     66 N7         -4.7440   -2.0080   -3.3740 n         1 MOL     -0.757006
     67 O11        -4.0730   -1.0160   -1.5350 o         1 MOL     -0.492745
     68 H28        -5.0080    1.2820   -0.7760 hn        1 MOL     -0.059526
     69 H29        -7.7830    0.4500   -1.2730 h1        1 MOL      0.115917
     70 H30        -6.3350    0.2810   -3.2270 hc        1 MOL      0.042298
     71 H31        -6.9470   -1.2060   -2.7170 hc        1 MOL      0.042298
     72 H32        -5.5810   -2.1850   -3.9190 hn        1 MOL      0.358722
     73 H33        -3.8870   -2.5050   -3.5360 hn        1 MOL      0.358722
     74 N8         -6.0930   -0.9140    0.9950 n         1 MOL     -0.006459
     75 C23        -5.9980   -1.9320    2.0830 c3        1 MOL     -0.355808
     76 C24        -4.6840   -2.7130    2.1790 c         1 MOL      0.719966
     77 O12        -4.6720   -3.6170    2.9880 o         1 MOL     -0.574233
     78 H34        -5.4210   -0.1600    0.9790 hn        1 MOL      0.095798
     79 H35        -6.7740   -2.6930    2.0010 h1        1 MOL      0.150706
     80 H36        -6.1270   -1.4130    3.0410 h1        1 MOL      0.150706
     81 N9         -3.6810   -2.4490    1.2530 n         1 MOL     -0.523130
     82 C25        -2.5060   -3.2970    1.0050 c3        1 MOL      0.180023
     83 C26        -1.2140   -2.5260    0.9110 c         1 MOL      0.508876
     84 O13        -1.2090   -1.3800    0.5160 o         1 MOL     -0.612071
     85 C27        -2.7290   -4.0820   -0.2840 c3        1 MOL      0.041325
     86 C28        -3.8740   -5.1520   -0.2970 ca        1 MOL      0.212907
     87 C29        -5.1910   -4.7540   -0.5300 ca        1 MOL     -0.301288
     88 C30        -3.5830   -6.5040   -0.3060 ca        1 MOL     -0.301288
     89 C31        -6.2570   -5.6670   -0.6900 ca        1 MOL     -0.175366
     90 C32        -4.6350   -7.4770   -0.4580 ca        1 MOL     -0.175366
     91 C33        -5.9660   -7.0350   -0.6910 ca        1 MOL      0.268030
     92 O14        -6.9790   -7.9210   -0.9200 oh        1 MOL     -0.431611
     93 H37        -3.8380   -1.7570    0.5410 hn        1 MOL      0.310838
     94 H38        -2.4370   -4.0520    1.7900 h1        1 MOL      0.021841
     95 H39        -1.7850   -4.5520   -0.5570 hc        1 MOL     -0.048325
     96 H40        -2.8800   -3.4200   -1.1350 hc        1 MOL     -0.048325
     97 H41        -5.4700   -3.7090   -0.5020 ha        1 MOL      0.143505
     98 H42        -2.5910   -6.8790   -0.0830 ha        1 MOL      0.143505
     99 H43        -7.2650   -5.2910   -0.8100 ha        1 MOL      0.139822
    100 H44        -4.4450   -8.5420   -0.4140 ha        1 MOL      0.139822
    101 H45        -6.5830   -8.7850   -1.0400 ho        1 MOL      0.320161
    102 N10        -0.0870   -3.1970    1.2010 n         1 MOL     -0.410168
    103 C34         1.2530   -2.5490    1.1000 c3        1 MOL     -0.149832
    104 C35         2.1950   -3.4970    0.3330 c         1 MOL      0.473580
    105 O15         2.2180   -4.7160    0.6200 o         1 MOL     -0.530273
    106 C36         1.8860   -2.0700    2.4400 c3        1 MOL      0.142673
    107 C37         2.0590   -3.0960    3.5230 c3        1 MOL     -0.228264
    108 C38         1.1280   -0.7880    2.9990 c3        1 MOL     -0.591618
    109 C39         2.6400   -2.6470    4.9420 c3        1 MOL     -0.075664
    110 H46        -0.1780   -4.0060    1.7990 hn        1 MOL      0.279455
    111 H47         1.1530   -1.6440    0.5100 h1        1 MOL      0.307861
    112 H48         2.8810   -1.6360    2.2930 hc        1 MOL      0.013985
    113 H49         2.6590   -3.8970    3.0990 hc        1 MOL      0.091187
    114 H50         1.0880   -3.5510    3.7360 hc        1 MOL      0.091187
    115 H51         1.0040   -0.0340    2.2260 hc        1 MOL      0.187217
    116 H52         0.1990   -1.1200    3.4580 hc        1 MOL      0.187217
    117 H53         1.9150   -0.3500    3.6190 hc        1 MOL      0.187217
    118 H54         2.0030   -1.8490    5.3470 hc        1 MOL      0.028843
    119 H55         2.7230   -3.5030    5.6150 hc        1 MOL      0.028843
    120 H56         3.5930   -2.2070    4.6660 hc        1 MOL      0.028843
    121 N11         2.9290   -2.9590   -0.6370 n         1 MOL     -0.323285
    122 C40         4.0370   -3.6240   -1.2540 c3        1 MOL      0.085316
    123 C41         5.3420   -3.4770   -0.5640 c         1 MOL      0.471410
    124 O16         5.4700   -2.6890    0.3930 o         1 MOL     -0.411384
    125 C42         4.1350   -3.1290   -2.7420 c3        1 MOL     -0.153251
    126 O17         4.6720   -1.8270   -2.7440 oh        1 MOL     -0.368737
    127 H57         2.8080   -1.9730   -0.8330 hn        1 MOL      0.205162
    128 H58         3.8170   -4.6940   -1.3230 h1        1 MOL      0.067588
    129 H59         3.1170   -3.1110   -3.1270 h1        1 MOL      0.091523
    130 H60         4.6030   -3.8570   -3.4110 h1        1 MOL      0.091523
    131 H61         4.3890   -1.5760   -3.6190 ho        1 MOL      0.374695
    132 N12         6.3800   -4.1630   -1.0280 n         1 MOL     -0.453751
    133 C43         7.6720   -3.8200   -0.4930 c3        1 MOL      0.220255
    134 C44         8.2290   -2.4040   -0.8200 c         1 MOL      0.358470
    135 O18         9.0330   -1.8810   -0.0110 o         1 MOL     -0.490780
    136 C45         8.5990   -4.9060   -1.1130 c3        1 MOL     -0.326339
    137 H62         6.1920   -4.9570   -1.6260 hn        1 MOL      0.298183
    138 H63         7.7770   -3.8420    0.5900 h1        1 MOL      0.065430
    139 H64         8.6290   -4.8070   -2.1970 hc        1 MOL      0.094077
    140 H65         9.6360   -4.7570   -0.8080 hc        1 MOL      0.094077
    141 H66         8.2560   -5.8990   -0.8340 hc        1 MOL      0.094077
    142 N13         7.7540   -1.7910   -1.9000 n         1 MOL     -0.205043
    143 C46         8.0840   -0.4020   -2.0990 c3        1 MOL      0.054734
    144 C47         7.2640    0.4920   -1.1450 c         1 MOL      0.343075
    145 O19         7.7080    1.5960   -0.7220 o         1 MOL     -0.512207
    146 C48         7.8170   -0.1190   -3.6110 c3        1 MOL     -0.206110
    147 H67         7.3650   -2.4000   -2.6040 hn        1 MOL      0.205716
    148 H68         9.1360   -0.2230   -1.9110 h1        1 MOL      0.105419
    149 H69         7.8970    0.9580   -3.7780 hc        1 MOL      0.060606
    150 H70         8.5440   -0.6110   -4.2560 hc        1 MOL      0.060606
    151 H71         6.8010   -0.3800   -3.8990 hc        1 MOL      0.060606
    152 N14         6.0280    0.0970   -0.7330 n         1 MOL      0.013370
    153 C49         5.3030    0.8350    0.3070 c3        1 MOL     -0.015033
    154 C50         5.9620    0.7100    1.7100 c         1 MOL      0.431891
    155 O20         6.1050    1.7800    2.3340 o         1 MOL     -0.532823
    156 C51         3.7270    0.6270    0.3950 c3        1 MOL      0.131508
    157 C52         3.0610    1.2890   -0.8380 c3        1 MOL      0.096764
    158 C53         1.5360    0.8940   -0.9430 c         1 MOL      0.639800
    159 O21         1.1540   -0.0370   -1.7020 o         1 MOL     -0.728560
    160 O22         0.5600    1.4490   -0.3350 o         1 MOL     -0.728560
    161 H72         5.7530   -0.8540   -0.9300 hn        1 MOL     -0.189185
    162 H73         5.3300    1.8900    0.0770 h1        1 MOL      0.049865
    163 H74         3.4560    1.0450    1.3700 hc        1 MOL     -0.004242
    164 H75         3.4100   -0.4120    0.5000 hc        1 MOL     -0.004242
    165 H76         3.5080    0.7210   -1.6580 hc        1 MOL     -0.092868
    166 H77         3.2810    2.3500   -0.9030 hc        1 MOL     -0.092868
    167 N15         6.4460   -0.4870    2.1310 n         1 MOL     -0.093895
    168 C54         7.1440   -0.7590    3.3590 c3        1 MOL     -0.274910
    169 H78         7.4760    0.1800    3.8030 h1        1 MOL      0.106328
    170 H79         6.4770   -1.2720    4.0510 h1        1 MOL      0.106328
    171 H80         8.0100   -1.3890    3.1540 h1        1 MOL      0.106328
    172 H81         6.1230   -1.3160    1.6550 hn        1 MOL      0.183539
    173 Ca1        -1.5140    0.3350   -1.4550 Ca        1 MOL      1.753050
    174 O23        -1.3930    0.1010   -3.9980 oh        1 MOL     -0.871608
    175 H82        -1.0840   -0.6820   -4.4450 ho        1 MOL      0.420231
    176 H83        -1.4280    0.7780   -4.6780 ho        1 MOL      0.420231
    177 O24        -0.8140   -2.2210   -2.3460 oh        1 MOL     -0.871608
    178 H84         0.0770   -2.5760   -2.4300 ho        1 MOL      0.420231
    179 H85        -1.3840   -2.9150   -2.6800 ho        1 MOL      0.420231
@<TRIPOS>BOND
     1    1    2 1   
     2    1    4 1   
     3    1    5 1   
     4    1    6 1   
     5    2    3 2   
     6    2    7 1   
     7    7    8 1   
     8    7   15 1   
     9    8    9 1   
    10    8   11 1   
    11    8   16 1   
    12    9   10 2   
    13    9   19 1   
    14   11   12 1   
    15   11   17 1   
    16   11   18 1   
    17   12   13 1   
    18   12   14 1   
    19   19   20 1   
    20   19   28 1   
    21   20   21 1   
    22   20   23 1   
    23   20   29 1   
    24   21   22 2   
    25   21   41 1   
    26   23   24 1   
    27   23   30 1   
    28   23   31 1   
    29   24   25 1   
    30   24   32 1   
    31   24   33 1   
    32   25   26 1   
    33   25   34 1   
    34   25   35 1   
    35   26   27 1   
    36   26   36 1   
    37   26   37 1   
    38   27   38 1   
    39   27   39 1   
    40   27   40 1   
    41   41   42 1   
    42   41   49 1   
    43   42   43 1   
    44   42   45 1   
    45   42   50 1   
    46   43   44 2   
    47   43   53 1   
    48   45   46 1   
    49   45   51 1   
    50   45   52 1   
    51   46   47 1   
    52   46   48 1   
    53   53   54 1   
    54   53   57 1   
    55   54   55 1   
    56   54   58 1   
    57   54   59 1   
    58   55   56 2   
    59   55   60 1   
    60   60   61 1   
    61   60   68 1   
    62   61   62 1   
    63   61   64 1   
    64   61   69 1   
    65   62   63 2   
    66   62   74 1   
    67   64   65 1   
    68   64   70 1   
    69   64   71 1   
    70   65   66 1   
    71   65   67 2   
    72   66   72 1   
    73   66   73 1   
    74   74   75 1   
    75   74   78 1   
    76   75   76 1   
    77   75   79 1   
    78   75   80 1   
    79   76   77 2   
    80   76   81 1   
    81   81   82 1   
    82   81   93 1   
    83   82   83 1   
    84   82   85 1   
    85   82   94 1   
    86   83   84 2   
    87   83  102 1   
    88   85   86 1   
    89   85   95 1   
    90   85   96 1   
    91   86   87 ar  
    92   86   88 ar  
    93   87   89 ar  
    94   87   97 1   
    95   88   90 ar  
    96   88   98 1   
    97   89   91 ar  
    98   89   99 1   
    99   90   91 ar  
   100   90  100 1   
   101   91   92 1   
   102   92  101 1   
   103  102  103 1   
   104  102  110 1   
   105  103  104 1   
   106  103  106 1   
   107  103  111 1   
   108  104  105 2   
   109  104  121 1   
   110  106  107 1   
   111  106  108 1   
   112  106  112 1   
   113  107  109 1   
   114  107  113 1   
   115  107  114 1   
   116  108  115 1   
   117  108  116 1   
   118  108  117 1   
   119  109  118 1   
   120  109  119 1   
   121  109  120 1   
   122  121  122 1   
   123  121  127 1   
   124  122  123 1   
   125  122  125 1   
   126  122  128 1   
   127  123  124 2   
   128  123  132 1   
   129  125  126 1   
   130  125  129 1   
   131  125  130 1   
   132  126  131 1   
   133  132  133 1   
   134  132  137 1   
   135  133  134 1   
   136  133  136 1   
   137  133  138 1   
   138  134  135 2   
   139  134  142 1   
   140  136  139 1   
   141  136  140 1   
   142  136  141 1   
   143  142  143 1   
   144  142  147 1   
   145  143  144 1   
   146  143  146 1   
   147  143  148 1   
   148  144  145 2   
   149  144  152 1   
   150  146  149 1   
   151  146  150 1   
   152  146  151 1   
   153  152  153 1   
   154  152  161 1   
   155  153  154 1   
   156  153  156 1   
   157  153  162 1   
   158  154  155 2   
   159  154  167 1   
   160  156  157 1   
   161  156  163 1   
   162  156  164 1   
   163  157  158 1   
   164  157  165 1   
   165  157  166 1   
   166  158  159 1   
   167  158  160 1   
   168  167  168 1   
   169  167  172 1   
   170  168  169 1   
   171  168  170 1   
   172  168  171 1   
   173  174  175 1   
   174  174  176 1   
   175  177  178 1   
   176  177  179 1   
@<TRIPOS>SUBSTRUCTURE
     1 MOL         1 TEMP              0 ****  ****    0 ROOT
