@<TRIPOS>MOLECULE
MOL
  182   178     1     0     0
SMALL
resp


@<TRIPOS>ATOM
      1 C1         -1.6100   -3.3760    5.8890 c3        1 MOL     -0.363645
      2 C2         -1.1440   -2.9710    4.4990 c         1 MOL      0.729284
      3 O1         -1.9460   -2.8050    3.5730 o         1 MOL     -0.591586
      4 H1         -1.4340   -2.5550    6.5840 hc        1 MOL      0.098679
      5 H2         -2.6750   -3.6070    5.8630 hc        1 MOL      0.098679
      6 H3         -1.0540   -4.2540    6.2170 hc        1 MOL      0.098679
      7 N1          0.2100   -3.0120    4.2680 n         1 MOL     -0.637259
      8 C3          0.7680   -2.7610    2.9520 c3        1 MOL      0.191742
      9 C4          0.9160   -4.0910    2.1020 c         1 MOL      0.517223
     10 O2          1.4280   -5.1380    2.5690 o         1 MOL     -0.558351
     11 C5          2.1060   -2.1160    3.1020 c3        1 MOL     -0.227520
     12 C6          2.7120   -1.5420    1.7680 c         1 MOL      0.881705
     13 O3          2.2650   -1.8670    0.6480 o         1 MOL     -0.823578
     14 O4          3.7420   -0.8340    1.7970 o         1 MOL     -0.823578
     15 H4          0.8700   -3.0160    5.0340 hn        1 MOL      0.323702
     16 H5          0.1160   -2.0210    2.4940 h1        1 MOL     -0.016891
     17 H6          2.7680   -2.8770    3.5080 hc        1 MOL      0.067778
     18 H7          2.1340   -1.2590    3.7840 hc        1 MOL      0.067778
     19 N2          0.4390   -4.0740    0.8380 n         1 MOL     -0.251817
     20 C7          0.3720   -5.2050   -0.0370 c3        1 MOL     -0.249910
     21 C8          1.5130   -5.4200   -1.0350 c         1 MOL      0.617982
     22 O5          1.5900   -6.4760   -1.6030 o         1 MOL     -0.568855
     23 C9         -0.9860   -5.1320   -0.7980 c3        1 MOL     -0.004019
     24 C10        -2.3240   -5.2710    0.0850 c3        1 MOL      0.102924
     25 C11        -3.5540   -5.2720   -0.9510 c3        1 MOL     -0.286286
     26 C12        -4.9020   -5.2330   -0.2520 c3        1 MOL      0.190581
     27 N3         -5.9790   -5.4700   -1.2930 n4        1 MOL     -0.540572
     28 H8          0.0330   -3.1930    0.5490 hn        1 MOL      0.211973
     29 H9          0.3570   -6.0850    0.6090 h1        1 MOL      0.147174
     30 H10        -1.0220   -6.0250   -1.4350 hc        1 MOL      0.020881
     31 H11        -1.0430   -4.1980   -1.3610 hc        1 MOL      0.020881
     32 H12        -2.3470   -4.4530    0.8010 hc        1 MOL      0.036402
     33 H13        -2.3390   -6.1840    0.6840 hc        1 MOL      0.036402
     34 H14        -3.5160   -6.1730   -1.5540 hc        1 MOL      0.067378
     35 H15        -3.5610   -4.3630   -1.5620 hc        1 MOL      0.067378
     36 H16        -4.9780   -4.2290    0.1520 hx        1 MOL      0.067960
     37 H17        -4.9260   -5.8360    0.6580 hx        1 MOL      0.067960
     38 H18        -6.8820   -5.3300   -0.8790 hn        1 MOL      0.373568
     39 H19        -5.8240   -4.8970   -2.1070 hn        1 MOL      0.373568
     40 H20        -5.7680   -6.4120   -1.6040 hn        1 MOL      0.373568
     41 N4          2.4660   -4.4740   -1.1180 n         1 MOL     -0.362925
     42 C13         3.7030   -4.7480   -1.8930 c3        1 MOL      0.074996
     43 C14         4.9610   -4.5310   -1.0120 c         1 MOL      0.438078
     44 O6          5.9940   -5.0620   -1.3770 o         1 MOL     -0.517999
     45 C15         3.8120   -3.9340   -3.2020 c3        1 MOL     -0.378657
     46 C16         3.6150   -2.4730   -3.1620 c         1 MOL      1.008051
     47 O7          3.6330   -1.8700   -4.2510 o         1 MOL     -0.787207
     48 O8          3.4230   -1.8840   -2.0940 o         1 MOL     -0.787207
     49 H21         2.4460   -3.5770   -0.6600 hn        1 MOL      0.304377
     50 H22         3.7020   -5.8220   -2.0740 h1        1 MOL      0.095269
     51 H23         3.0960   -4.3520   -3.9180 hc        1 MOL      0.092853
     52 H24         4.8160   -4.0910   -3.6120 hc        1 MOL      0.092853
     53 N5          4.8010   -3.7770    0.1020 n         1 MOL     -0.260159
     54 C17         5.8260   -3.2690    1.0600 c3        1 MOL     -0.135512
     55 C18         6.4260   -1.9360    0.6590 c         1 MOL      0.528746
     56 O9          7.3770   -1.4680    1.3330 o         1 MOL     -0.605236
     57 H25         3.9170   -3.3160    0.2030 hn        1 MOL      0.115715
     58 H26         6.7040   -3.9050    1.1380 h1        1 MOL      0.110373
     59 H27         5.3060   -3.1560    2.0170 h1        1 MOL      0.110373
     60 N6          5.8850   -1.2820   -0.3180 n         1 MOL     -0.184899
     61 C19         6.4790   -0.0730   -0.8330 c3        1 MOL     -0.112779
     62 C20         6.5780    1.1250    0.0780 c         1 MOL      0.263127
     63 O10         7.1020    2.1460   -0.3440 o         1 MOL     -0.460084
     64 C21         5.8590    0.2950   -2.1770 c3        1 MOL     -0.251917
     65 C22         4.4830    0.9840   -2.1250 c         1 MOL      0.714538
     66 N7          4.1040    1.6040   -3.2320 n         1 MOL     -0.696711
     67 O11         3.7350    0.8970   -1.1200 o         1 MOL     -0.663792
     68 H28         5.0610   -1.6550   -0.7770 hn        1 MOL      0.211665
     69 H29         7.4920   -0.3710   -1.0810 h1        1 MOL      0.133849
     70 H30         5.7190   -0.6250   -2.7490 hc        1 MOL      0.103362
     71 H31         6.5060    0.9950   -2.7040 hc        1 MOL      0.103362
     72 H32         4.5640    1.6240   -4.1330 hn        1 MOL      0.330318
     73 H33         3.2010    2.0570   -3.2580 hn        1 MOL      0.330318
     74 N8          6.0720    1.0850    1.3080 n         1 MOL      0.062085
     75 C23         6.0120    2.0660    2.3640 c3        1 MOL     -0.580646
     76 C24         4.8340    3.0210    2.1330 c         1 MOL      0.820737
     77 O12         4.8260    4.0980    2.7070 o         1 MOL     -0.589266
     78 H34         5.6040    0.2150    1.4860 hn        1 MOL      0.249707
     79 H35         6.9220    2.6620    2.2580 h1        1 MOL      0.190842
     80 H36         6.0130    1.5090    3.3040 h1        1 MOL      0.190842
     81 N9          3.8590    2.6450    1.3640 n         1 MOL     -0.792347
     82 C25         2.5960    3.3250    1.1130 c3        1 MOL      0.301772
     83 C26         1.2910    2.4690    1.2160 c         1 MOL      0.508140
     84 O13         1.4430    1.3320    0.7420 o         1 MOL     -0.705822
     85 C27         2.7260    4.0250   -0.2570 c3        1 MOL     -0.118661
     86 C28         3.9920    4.9310   -0.2650 ca        1 MOL      0.261730
     87 C29         5.1480    4.5780   -0.9900 ca        1 MOL     -0.431874
     88 C30         3.8850    6.2090    0.3400 ca        1 MOL     -0.431874
     89 C31         6.3250    5.3570   -0.9540 ca        1 MOL      0.034974
     90 C32         5.0230    7.0200    0.3710 ca        1 MOL      0.034974
     91 C33         6.1850    6.6370   -0.3430 ca        1 MOL      0.069300
     92 O14         7.2760    7.4310   -0.3070 oh        1 MOL     -0.432801
     93 H37         4.0480    1.8720    0.7350 hn        1 MOL      0.639031
     94 H38         2.4530    4.1330    1.8360 h1        1 MOL      0.012975
     95 H39         1.8240    4.6110   -0.4460 hc        1 MOL      0.007300
     96 H40         3.0090    3.3040   -1.0180 hc        1 MOL      0.007300
     97 H41         5.2060    3.6140   -1.4730 ha        1 MOL      0.176604
     98 H42         2.9500    6.5730    0.7220 ha        1 MOL      0.176604
     99 H43         7.2690    5.0060   -1.3420 ha        1 MOL      0.087750
    100 H44         4.8260    8.0010    0.7650 ha        1 MOL      0.087750
    101 H45         7.1050    8.3040    0.0480 ho        1 MOL      0.345663
    102 N10         0.1060    3.0270    1.4220 n         1 MOL     -0.504492
    103 C34        -1.2000    2.4330    1.1410 c3        1 MOL      0.025610
    104 C35        -2.0620    3.4320    0.3350 c         1 MOL      0.573596
    105 O15        -2.1370    4.5720    0.7100 o         1 MOL     -0.541961
    106 C36        -1.7900    1.8080    2.4670 c3        1 MOL      0.066136
    107 C37        -1.9820    2.8740    3.5050 c3        1 MOL     -0.052315
    108 C38        -1.1000    0.5060    2.8130 c3        1 MOL     -0.149497
    109 C39        -2.3830    2.1730    4.8430 c3        1 MOL     -0.231287
    110 H46         0.1530    4.0190    1.6050 hn        1 MOL      0.291707
    111 H47        -0.9880    1.6470    0.4070 h1        1 MOL      0.216205
    112 H48        -2.8060    1.5340    2.1580 hc        1 MOL     -0.054749
    113 H49        -2.8120    3.4930    3.1540 hc        1 MOL      0.042058
    114 H50        -1.0970    3.5080    3.6140 hc        1 MOL      0.042058
    115 H51        -0.8960   -0.0750    1.9130 hc        1 MOL      0.069017
    116 H52        -0.2000    0.6390    3.4190 hc        1 MOL      0.069017
    117 H53        -1.6770   -0.0930    3.5110 hc        1 MOL      0.069017
    118 H54        -1.5720    1.7680    5.4500 hc        1 MOL      0.062400
    119 H55        -2.7770    2.9360    5.5150 hc        1 MOL      0.062400
    120 H56        -3.1750    1.4380    4.7010 hc        1 MOL      0.062400
    121 N11        -2.8190    2.8840   -0.6270 n         1 MOL     -0.342531
    122 C40        -3.8950    3.6010   -1.2540 c3        1 MOL      0.042210
    123 C41        -5.2080    3.5460   -0.3970 c         1 MOL      0.499287
    124 O16        -5.3870    2.7870    0.5390 o         1 MOL     -0.399147
    125 C42        -4.0630    3.1090   -2.6560 c3        1 MOL     -0.365459
    126 O17        -4.6090    1.8290   -2.7610 oh        1 MOL     -0.302589
    127 H57        -2.6680    1.9180   -0.8810 hn        1 MOL      0.216542
    128 H58        -3.4960    4.6220   -1.2880 h1        1 MOL      0.085190
    129 H59        -3.1170    3.0970   -3.1930 h1        1 MOL      0.154462
    130 H60        -4.7730    3.7700   -3.1500 h1        1 MOL      0.154462
    131 H61        -4.3860    1.4800   -3.6250 ho        1 MOL      0.360376
    132 N12        -6.2860    4.1130   -1.0120 n         1 MOL     -0.566517
    133 C43        -7.7100    3.9300   -0.6830 c3        1 MOL      0.357256
    134 C44        -8.3160    2.5080   -0.8220 c         1 MOL      0.357854
    135 O18        -9.1940    2.1280   -0.0330 o         1 MOL     -0.502995
    136 C45        -8.5300    5.0730   -1.2240 c3        1 MOL     -0.313130
    137 H62        -6.0210    4.6460   -1.8230 hn        1 MOL      0.305755
    138 H63        -7.8960    4.0910    0.3870 h1        1 MOL      0.038143
    139 H64        -9.5920    4.8310   -1.2770 hc        1 MOL      0.084257
    140 H65        -8.3530    6.0510   -0.7770 hc        1 MOL      0.084257
    141 H66        -8.1930    5.0740   -2.2560 hc        1 MOL      0.084257
    142 N13        -7.7630    1.7590   -1.7550 n         1 MOL     -0.274290
    143 C46        -8.1680    0.3420   -1.9950 c3        1 MOL      0.084609
    144 C47        -7.3470   -0.6530   -1.1950 c         1 MOL      0.403638
    145 O19        -7.9380   -1.6310   -0.8160 o         1 MOL     -0.530614
    146 C48        -7.9630    0.1220   -3.4890 c3        1 MOL     -0.245403
    147 H67        -6.9720    2.0550   -2.3150 hn        1 MOL      0.184318
    148 H68        -9.1810    0.0910   -1.6900 h1        1 MOL      0.111316
    149 H69        -6.9110    0.2190   -3.7590 hc        1 MOL      0.064603
    150 H70        -8.3390   -0.8620   -3.8010 hc        1 MOL      0.064603
    151 H71        -8.5160    0.8500   -4.0820 hc        1 MOL      0.064603
    152 N14        -6.1530   -0.3270   -0.8510 n         1 MOL     -0.119363
    153 C49        -5.3470   -0.9820    0.2150 c3        1 MOL     -0.242441
    154 C50        -5.9930   -0.8350    1.5910 c         1 MOL      0.485751
    155 O20        -6.1210   -1.8410    2.3150 o         1 MOL     -0.559412
    156 C51        -3.9120   -0.4820    0.1740 c3        1 MOL     -0.056515
    157 C52        -3.0950   -1.1290   -0.9850 c3        1 MOL      0.119289
    158 C53        -1.6420   -0.6870   -0.8250 c         1 MOL      0.563928
    159 O21        -0.7750   -1.3550   -0.1820 o         1 MOL     -0.699444
    160 O22        -1.1660    0.1870   -1.6050 o         1 MOL     -0.699444
    161 H72        -5.7850    0.4900   -1.3140 hn        1 MOL      0.074858
    162 H73        -5.2790   -2.0570    0.0620 h1        1 MOL      0.130496
    163 H74        -3.3980   -0.6980    1.1020 hc        1 MOL      0.072870
    164 H75        -3.8190    0.5820   -0.0280 hc        1 MOL      0.072870
    165 H76        -3.5220   -0.9340   -1.9780 hc        1 MOL     -0.055345
    166 H77        -3.1260   -2.2100   -0.8650 hc        1 MOL     -0.055345
    167 N15        -6.3780    0.3730    1.9080 n         1 MOL     -0.030896
    168 C54        -7.0400    0.7460    3.1700 c3        1 MOL     -0.362588
    169 H78        -6.6540    1.7050    3.5130 h1        1 MOL      0.138405
    170 H79        -8.1150    0.8240    3.0080 h1        1 MOL      0.138405
    171 H80        -6.8410   -0.0150    3.9240 h1        1 MOL      0.138405
    172 H81        -6.3110    1.0860    1.1970 hn        1 MOL      0.138705
    173 Ca1         1.4600   -0.3350   -1.1510 Ca        1 MOL      1.849937
    174 O23         0.7070    2.1210   -2.2610 oh        1 MOL     -0.897776
    175 H82         0.5920    3.0610   -2.3960 ho        1 MOL      0.420946
    176 H83         0.8020    1.7640   -3.1470 ho        1 MOL      0.420946
    177 O24         0.2870   -2.4970   -2.8220 oh        1 MOL     -0.897776
    178 H84         0.4940   -2.8450   -3.6910 ho        1 MOL      0.420946
    179 H85        -0.6700   -2.4240   -2.8140 ho        1 MOL      0.420946
    180 O25         1.7790    0.0780   -4.1170 oh        1 MOL     -0.897776
    181 H86         1.6200    0.1950   -5.0580 ho        1 MOL      0.420946
    182 H87         2.5300   -0.5160   -4.0820 ho        1 MOL      0.420946
@<TRIPOS>BOND
     1    1    2 1   
     2    1    4 1   
     3    1    5 1   
     4    1    6 1   
     5    2    3 2   
     6    2    7 1   
     7    7    8 1   
     8    7   15 1   
     9    8    9 1   
    10    8   11 1   
    11    8   16 1   
    12    9   10 2   
    13    9   19 1   
    14   11   12 1   
    15   11   17 1   
    16   11   18 1   
    17   12   13 1   
    18   12   14 1   
    19   19   20 1   
    20   19   28 1   
    21   20   21 1   
    22   20   23 1   
    23   20   29 1   
    24   21   22 2   
    25   21   41 1   
    26   23   24 1   
    27   23   30 1   
    28   23   31 1   
    29   24   25 1   
    30   24   32 1   
    31   24   33 1   
    32   25   26 1   
    33   25   34 1   
    34   25   35 1   
    35   26   27 1   
    36   26   36 1   
    37   26   37 1   
    38   27   38 1   
    39   27   39 1   
    40   27   40 1   
    41   41   42 1   
    42   41   49 1   
    43   42   43 1   
    44   42   45 1   
    45   42   50 1   
    46   43   44 2   
    47   43   53 1   
    48   45   46 1   
    49   45   51 1   
    50   45   52 1   
    51   46   47 1   
    52   46   48 1   
    53   53   54 1   
    54   53   57 1   
    55   54   55 1   
    56   54   58 1   
    57   54   59 1   
    58   55   56 2   
    59   55   60 1   
    60   60   61 1   
    61   60   68 1   
    62   61   62 1   
    63   61   64 1   
    64   61   69 1   
    65   62   63 2   
    66   62   74 1   
    67   64   65 1   
    68   64   70 1   
    69   64   71 1   
    70   65   66 1   
    71   65   67 2   
    72   66   72 1   
    73   66   73 1   
    74   74   75 1   
    75   74   78 1   
    76   75   76 1   
    77   75   79 1   
    78   75   80 1   
    79   76   77 2   
    80   76   81 1   
    81   81   82 1   
    82   81   93 1   
    83   82   83 1   
    84   82   85 1   
    85   82   94 1   
    86   83   84 2   
    87   83  102 1   
    88   85   86 1   
    89   85   95 1   
    90   85   96 1   
    91   86   87 ar  
    92   86   88 ar  
    93   87   89 ar  
    94   87   97 1   
    95   88   90 ar  
    96   88   98 1   
    97   89   91 ar  
    98   89   99 1   
    99   90   91 ar  
   100   90  100 1   
   101   91   92 1   
   102   92  101 1   
   103  102  103 1   
   104  102  110 1   
   105  103  104 1   
   106  103  106 1   
   107  103  111 1   
   108  104  105 2   
   109  104  121 1   
   110  106  107 1   
   111  106  108 1   
   112  106  112 1   
   113  107  109 1   
   114  107  113 1   
   115  107  114 1   
   116  108  115 1   
   117  108  116 1   
   118  108  117 1   
   119  109  118 1   
   120  109  119 1   
   121  109  120 1   
   122  121  122 1   
   123  121  127 1   
   124  122  123 1   
   125  122  125 1   
   126  122  128 1   
   127  123  124 2   
   128  123  132 1   
   129  125  126 1   
   130  125  129 1   
   131  125  130 1   
   132  126  131 1   
   133  132  133 1   
   134  132  137 1   
   135  133  134 1   
   136  133  136 1   
   137  133  138 1   
   138  134  135 2   
   139  134  142 1   
   140  136  139 1   
   141  136  140 1   
   142  136  141 1   
   143  142  143 1   
   144  142  147 1   
   145  143  144 1   
   146  143  146 1   
   147  143  148 1   
   148  144  145 2   
   149  144  152 1   
   150  146  149 1   
   151  146  150 1   
   152  146  151 1   
   153  152  153 1   
   154  152  161 1   
   155  153  154 1   
   156  153  156 1   
   157  153  162 1   
   158  154  155 2   
   159  154  167 1   
   160  156  157 1   
   161  156  163 1   
   162  156  164 1   
   163  157  158 1   
   164  157  165 1   
   165  157  166 1   
   166  158  159 1   
   167  158  160 1   
   168  167  168 1   
   169  167  172 1   
   170  168  169 1   
   171  168  170 1   
   172  168  171 1   
   173  174  175 1   
   174  174  176 1   
   175  177  178 1   
   176  177  179 1   
   177  180  181 1   
   178  180  182 1   
@<TRIPOS>SUBSTRUCTURE
     1 MOL         1 TEMP              0 ****  ****    0 ROOT
