@<TRIPOS>MOLECULE
MOL
  183   181     1     0     0
SMALL
resp


@<TRIPOS>ATOM
      1 C1         -0.4240    0.6150    6.3420 c3        1 MOL     -0.231276
      2 C2         -0.8890    0.8320    4.8720 c         1 MOL      0.815175
      3 O1         -0.1660    1.3860    4.0590 o         1 MOL     -0.611589
      4 H1         -0.9600    1.3030    6.9970 hc        1 MOL      0.039895
      5 H2         -0.6350   -0.4110    6.6430 hc        1 MOL      0.039895
      6 H3          0.6460    0.8030    6.4170 hc        1 MOL      0.039895
      7 N1         -2.1740    0.5230    4.6030 n         1 MOL     -0.686083
      8 C3         -2.6620    0.7290    3.2320 c3        1 MOL      0.263978
      9 C4         -2.9980    2.2050    3.1030 c         1 MOL      0.408573
     10 O2         -3.6820    2.7780    3.9380 o         1 MOL     -0.545083
     11 C5         -3.8880   -0.1640    2.9780 c3        1 MOL     -0.126531
     12 C6         -4.4870    0.1380    1.5760 c         1 MOL      0.731767
     13 O3         -5.6930    0.0720    1.4900 o         1 MOL     -0.690047
     14 O4         -3.7260    0.4320    0.6360 o         1 MOL     -0.690047
     15 H4         -2.7930    0.1880    5.3310 hn        1 MOL      0.318162
     16 H5         -1.8560    0.4720    2.5460 h1        1 MOL      0.051975
     17 H6         -4.6460   -0.0570    3.7530 hc        1 MOL      0.003856
     18 H7         -3.5310   -1.1920    2.9770 hc        1 MOL      0.003856
     19 N2         -2.3900    2.8500    2.0690 n         1 MOL     -0.210272
     20 C7         -2.7550    4.2520    1.8760 c3        1 MOL      0.023062
     21 C8         -4.1110    4.5440    1.1230 c         1 MOL      0.559315
     22 O5         -4.8950    5.3920    1.4770 o         1 MOL     -0.590618
     23 C9         -1.4660    4.8210    1.2750 c3        1 MOL      0.422005
     24 C10        -0.3140    4.8860    2.3930 c3        1 MOL     -0.002850
     25 C11        -1.6590    6.1390    0.5600 c3        1 MOL     -0.279491
     26 C12         0.9900    5.4950    1.8860 c3        1 MOL     -0.143174
     27 H8         -1.9760    2.3670    1.2810 hn        1 MOL      0.059911
     28 H9         -2.7750    4.7850    2.8170 h1        1 MOL     -0.007030
     29 H10        -1.1100    4.1220    0.5110 hc        1 MOL     -0.017915
     30 H11        -0.0280    3.9200    2.8330 hc        1 MOL     -0.026561
     31 H12        -0.7140    5.5280    3.1690 hc        1 MOL     -0.026561
     32 H13        -0.7770    6.6060    0.1230 hc        1 MOL      0.034352
     33 H14        -2.3070    5.9000   -0.2750 hc        1 MOL      0.034352
     34 H15        -2.1180    6.8190    1.2760 hc        1 MOL      0.034352
     35 H16         1.8910    5.3530    2.4950 hc        1 MOL      0.026883
     36 H17         1.2520    4.9330    0.9880 hc        1 MOL      0.026883
     37 H18         0.9050    6.5580    1.6580 hc        1 MOL      0.026883
     38 N3         -4.4040    3.6160    0.2260 n         1 MOL     -0.457956
     39 C13        -5.1940    3.9570   -0.9560 c3        1 MOL      0.110786
     40 C14        -6.4950    3.1370   -1.0990 c         1 MOL      0.383228
     41 O6         -7.0990    3.2240   -2.1670 o         1 MOL     -0.534090
     42 C15        -4.3180    4.1610   -2.2700 c3        1 MOL     -0.339149
     43 C16        -3.3100    3.0690   -2.6110 c         1 MOL      0.833157
     44 O7         -2.6330    3.2070   -3.6500 o         1 MOL     -0.709652
     45 O8         -2.9370    2.2730   -1.7760 o         1 MOL     -0.709652
     46 H19        -3.7940    2.8380    0.0000 hn        1 MOL      0.275800
     47 H20        -5.5850    4.9550   -0.7810 h1        1 MOL      0.070201
     48 H21        -3.6780    5.0180   -2.0660 hc        1 MOL      0.081840
     49 H22        -4.9300    4.4040   -3.1300 hc        1 MOL      0.081840
     50 N4         -6.9690    2.4320   -0.1500 n         1 MOL     -0.190484
     51 C17        -8.3350    1.7960   -0.0790 c3        1 MOL     -0.382221
     52 C18        -8.4150    0.4710   -0.9110 c         1 MOL      0.536127
     53 O9         -9.4720    0.2170   -1.4460 o         1 MOL     -0.600318
     54 H23        -6.3860    2.3670    0.6780 hn        1 MOL      0.256370
     55 H24        -9.0010    2.4680   -0.6190 h1        1 MOL      0.153889
     56 H25        -8.6180    1.5730    0.9580 h1        1 MOL      0.153889
     57 N5         -7.3740   -0.2060   -1.1220 n         1 MOL     -0.101230
     58 C19        -7.3810   -1.5790   -1.7350 c3        1 MOL     -0.206645
     59 C20        -7.2400   -2.6880   -0.7420 c         1 MOL      0.530534
     60 O10        -7.5360   -3.8240   -1.1670 o         1 MOL     -0.575270
     61 C21        -6.2930   -1.6370   -2.8620 c3        1 MOL     -0.020007
     62 C22        -4.8860   -1.2980   -2.4660 c         1 MOL      0.787892
     63 O11        -4.1710   -0.5620   -3.2020 o         1 MOL     -0.809624
     64 O12        -4.4860   -1.6820   -1.3800 o         1 MOL     -0.809624
     65 H26        -6.4630    0.1670   -0.8760 hn        1 MOL      0.176518
     66 H27        -8.3590   -1.8080   -2.1630 h1        1 MOL      0.124083
     67 H28        -6.5660   -0.9900   -3.6970 hc        1 MOL      0.017812
     68 H29        -6.1760   -2.5690   -3.4070 hc        1 MOL      0.017812
     69 N6         -6.8300   -2.4570    0.5280 n         1 MOL     -0.318180
     70 C23        -6.6560   -3.5780    1.4830 c3        1 MOL     -0.174605
     71 C24        -5.4390   -4.4430    1.2670 c         1 MOL      0.579316
     72 O13        -5.4770   -5.5210    1.8420 o         1 MOL     -0.598714
     73 H30        -6.4430   -1.5370    0.7140 hn        1 MOL      0.232939
     74 H31        -7.5620   -4.1650    1.3670 h1        1 MOL      0.095860
     75 H32        -6.5920   -3.1080    2.4630 h1        1 MOL      0.095860
     76 N7         -4.3950   -3.9950    0.5710 n         1 MOL     -0.212557
     77 C25        -3.0320   -4.5590    0.5550 c3        1 MOL     -0.100335
     78 C26        -1.8970   -3.4480    0.6660 c         1 MOL      0.660672
     79 O14        -2.1730   -2.2450    0.5760 o         1 MOL     -0.696933
     80 C27        -2.7840   -5.4980   -0.6570 c3        1 MOL     -0.283066
     81 C28        -2.9850   -4.8880   -2.0470 c3        1 MOL     -0.172583
     82 C29        -1.9020   -3.9360   -2.4650 c         1 MOL      0.552179
     83 N8         -0.7350   -4.5250   -2.7900 n         1 MOL     -0.727702
     84 O15        -2.0530   -2.7300   -2.6080 o         1 MOL     -0.492907
     85 H33        -4.4900   -3.0510    0.2530 hn        1 MOL      0.299068
     86 H34        -2.8660   -5.0620    1.5100 h1        1 MOL      0.063166
     87 H35        -3.5500   -6.2840   -0.6440 hc        1 MOL      0.093465
     88 H36        -1.8160   -6.0020   -0.5570 hc        1 MOL      0.093465
     89 H37        -3.9110   -4.3190   -1.9560 hc        1 MOL      0.098609
     90 H38        -3.0930   -5.6240   -2.8380 hc        1 MOL      0.098609
     91 H39        -0.6060   -5.5070   -2.5910 hn        1 MOL      0.333767
     92 H40         0.0980   -3.9760   -2.9140 hn        1 MOL      0.333767
     93 N9         -0.6630   -3.8620    0.8820 n         1 MOL     -0.329830
     94 C30         0.5190   -3.1430    1.3690 c3        1 MOL      0.056494
     95 C31         1.6930   -3.4080    0.4200 c         1 MOL      0.204716
     96 O16         2.3250   -4.4780    0.4430 o         1 MOL     -0.553067
     97 C32         0.8970   -3.5640    2.7210 c3        1 MOL      0.254490
     98 C33         2.0540   -2.7700    3.3460 c3        1 MOL     -0.217723
     99 C34        -0.2770   -3.5000    3.7040 c3        1 MOL     -0.217723
    100 H41        -0.6060   -4.8650    0.8180 hn        1 MOL      0.244131
    101 H42         0.3010   -2.0780    1.2880 h1        1 MOL      0.145849
    102 H43         1.1560   -4.6210    2.6560 hc        1 MOL     -0.040028
    103 H44         1.7700   -1.7560    3.6370 hc        1 MOL      0.033815
    104 H45         2.4180   -3.2490    4.2620 hc        1 MOL      0.033815
    105 H46         2.9550   -2.7590    2.7290 hc        1 MOL      0.033815
    106 H47        -0.6850   -2.5080    3.8390 hc        1 MOL      0.033815
    107 H48        -0.9910   -4.2520    3.3680 hc        1 MOL      0.033815
    108 H49         0.1140   -3.8790    4.6510 hc        1 MOL      0.033815
    109 N10         2.0830   -2.3630   -0.2860 n         1 MOL      0.147080
    110 C35         3.2670   -2.4330   -1.2120 c3        1 MOL      0.262989
    111 C36         4.4840   -1.9300   -0.4280 c         1 MOL      0.243734
    112 O17         4.4890   -1.3460    0.6590 o         1 MOL     -0.276184
    113 C37         3.0250   -1.5700   -2.4160 c3        1 MOL     -0.461327
    114 C38         1.8370   -2.1010   -3.1500 c         1 MOL      0.666830
    115 N11         0.7390   -1.3530   -3.3730 n         1 MOL     -0.766343
    116 O18         1.7370   -3.3390   -3.2830 o         1 MOL     -0.580811
    117 H50         1.4920   -1.5470   -0.2460 hn        1 MOL     -0.120229
    118 H51         3.4280   -3.4600   -1.5370 h1        1 MOL      0.018711
    119 H52         3.8890   -1.5350   -3.0760 hc        1 MOL      0.135438
    120 H53         2.7120   -0.5710   -2.1180 hc        1 MOL      0.135438
    121 H54         0.8410   -0.3850   -3.1170 hn        1 MOL      0.369121
    122 H55        -0.1230   -1.6480   -3.8100 hn        1 MOL      0.369121
    123 N12         5.6320   -2.0360   -1.0860 n         1 MOL     -0.472828
    124 C39         6.9670   -1.6410   -0.5210 c3        1 MOL      0.243966
    125 C40         7.0130   -0.0920   -0.4600 c         1 MOL      0.555149
    126 O19         7.5340    0.5060    0.4650 o         1 MOL     -0.508841
    127 C41         8.1330   -2.0780   -1.4590 c3        1 MOL     -0.251932
    128 C42         9.5070   -1.8270   -0.8270 ca        1 MOL      0.201769
    129 C43         9.7950   -2.2740    0.4710 ca        1 MOL     -0.304137
    130 C44        10.5230   -1.1500   -1.5880 ca        1 MOL     -0.304137
    131 C45        10.9740   -1.9650    1.1170 ca        1 MOL     -0.157691
    132 C46        11.7130   -0.8230   -0.8840 ca        1 MOL     -0.157691
    133 C47        11.9390   -1.1210    0.4410 ca        1 MOL      0.263159
    134 O20        13.0650   -0.7950    1.1530 oh        1 MOL     -0.477426
    135 H56         5.5720   -2.6600   -1.8820 hn        1 MOL      0.276739
    136 H57         6.9780   -2.1370    0.4430 h1        1 MOL      0.051277
    137 H58         8.0800   -1.4790   -2.3710 hc        1 MOL      0.072435
    138 H59         8.0690   -3.1380   -1.7150 hc        1 MOL      0.072435
    139 H60         9.0460   -2.8020    1.0550 ha        1 MOL      0.171756
    140 H61        10.3280   -0.8720   -2.6080 ha        1 MOL      0.171756
    141 H62        11.1700   -2.2350    2.1430 ha        1 MOL      0.122798
    142 H63        12.4910   -0.3130   -1.4470 ha        1 MOL      0.122798
    143 H64        13.7760   -0.4270    0.6360 ho        1 MOL      0.349976
    144 N13         6.4290    0.6380   -1.4650 n         1 MOL     -0.443203
    145 C48         6.3270    2.0470   -1.4010 c3        1 MOL      0.023414
    146 C49         5.4120    2.4740   -0.1650 c         1 MOL      0.295628
    147 O21         5.5830    3.5310    0.3630 o         1 MOL     -0.511988
    148 C50         5.7570    2.5840   -2.7490 c3        1 MOL      0.009581
    149 C51         5.7560    4.1560   -2.7940 c3        1 MOL     -0.287149
    150 C52         4.9240    4.6410   -3.9620 c         1 MOL      0.776961
    151 O22         3.7200    4.4730   -4.0460 o         1 MOL     -0.754821
    152 O23         5.5980    5.3520   -4.7600 o         1 MOL     -0.754821
    153 H65         6.1400    0.2530   -2.3480 hn        1 MOL      0.227699
    154 H66         7.3080    2.5190   -1.3740 h1        1 MOL      0.092892
    155 H67         4.7690    2.1510   -2.9240 hc        1 MOL     -0.001841
    156 H68         6.3660    2.2190   -3.5660 hc        1 MOL     -0.001841
    157 H69         6.7660    4.5740   -2.7020 hc        1 MOL      0.057909
    158 H70         5.3350    4.4500   -1.8400 hc        1 MOL      0.057909
    159 N14         4.6090    1.5940    0.3910 n         1 MOL      0.045208
    160 C53         3.7210    1.6670    1.5260 c3        1 MOL     -0.314551
    161 C54         4.3610    1.2790    2.8530 c         1 MOL      0.553208
    162 O24         4.0740    1.9400    3.8720 o         1 MOL     -0.547980
    163 C55         2.4140    0.8840    1.2520 c3        1 MOL      0.375997
    164 C56         1.7800    1.3940   -0.0540 c3        1 MOL     -0.171273
    165 C57         0.3240    0.8500   -0.1600 c         1 MOL      0.625223
    166 O25        -0.6610    1.5830    0.0030 o         1 MOL     -0.627464
    167 O26         0.0810   -0.3550   -0.4520 o         1 MOL     -0.627464
    168 H71         4.5110    0.7330   -0.1210 hn        1 MOL      0.123331
    169 H72         3.4350    2.7150    1.6390 h1        1 MOL      0.165070
    170 H73         1.7870    1.1340    2.1060 hc        1 MOL     -0.054552
    171 H74         2.4720   -0.1950    1.2890 hc        1 MOL     -0.054552
    172 H75         2.4170    1.2130   -0.9180 hc        1 MOL      0.052445
    173 H76         1.7220    2.4810    0.0310 hc        1 MOL      0.052445
    174 N15         5.2300    0.2330    2.7820 n         1 MOL     -0.195834
    175 C58         5.9310   -0.2430    4.0040 c3        1 MOL     -0.311356
    176 H77         5.4690    0.2040    4.8850 h1        1 MOL      0.109622
    177 H78         5.8560   -1.3290    4.0670 h1        1 MOL      0.109622
    178 H79         6.9810    0.0470    3.9580 h1        1 MOL      0.109622
    179 H80         5.3550   -0.3500    1.9780 hn        1 MOL      0.107169
    180 Ca1        -2.3160   -0.2260   -1.3140 Ca        1 MOL      1.717279
    181 O27        -1.1760    0.7920   -3.6140 oh        1 MOL     -0.816273
    182 H81        -1.2450    0.3260   -4.4490 ho        1 MOL      0.387359
    183 H82        -1.5220    1.6620   -3.8050 ho        1 MOL      0.387359
@<TRIPOS>BOND
     1    1    2 1   
     2    1    4 1   
     3    1    5 1   
     4    1    6 1   
     5    2    3 2   
     6    2    7 1   
     7    7    8 1   
     8    7   15 1   
     9    8    9 1   
    10    8   11 1   
    11    8   16 1   
    12    9   10 2   
    13    9   19 1   
    14   11   12 1   
    15   11   17 1   
    16   11   18 1   
    17   12   13 1   
    18   12   14 1   
    19   19   20 1   
    20   19   27 1   
    21   20   21 1   
    22   20   23 1   
    23   20   28 1   
    24   21   22 2   
    25   21   38 1   
    26   23   24 1   
    27   23   25 1   
    28   23   29 1   
    29   24   26 1   
    30   24   30 1   
    31   24   31 1   
    32   25   32 1   
    33   25   33 1   
    34   25   34 1   
    35   26   35 1   
    36   26   36 1   
    37   26   37 1   
    38   38   39 1   
    39   38   46 1   
    40   39   40 1   
    41   39   42 1   
    42   39   47 1   
    43   40   41 2   
    44   40   50 1   
    45   42   43 1   
    46   42   48 1   
    47   42   49 1   
    48   43   44 1   
    49   43   45 1   
    50   50   51 1   
    51   50   54 1   
    52   51   52 1   
    53   51   55 1   
    54   51   56 1   
    55   52   53 2   
    56   52   57 1   
    57   57   58 1   
    58   57   65 1   
    59   58   59 1   
    60   58   61 1   
    61   58   66 1   
    62   59   60 2   
    63   59   69 1   
    64   61   62 1   
    65   61   67 1   
    66   61   68 1   
    67   62   63 1   
    68   62   64 1   
    69   69   70 1   
    70   69   73 1   
    71   70   71 1   
    72   70   74 1   
    73   70   75 1   
    74   71   72 2   
    75   71   76 1   
    76   76   77 1   
    77   76   85 1   
    78   77   78 1   
    79   77   80 1   
    80   77   86 1   
    81   78   79 2   
    82   78   93 1   
    83   80   81 1   
    84   80   87 1   
    85   80   88 1   
    86   81   82 1   
    87   81   89 1   
    88   81   90 1   
    89   82   83 1   
    90   82   84 2   
    91   83   91 1   
    92   83   92 1   
    93   93   94 1   
    94   93  100 1   
    95   94   95 1   
    96   94   97 1   
    97   94  101 1   
    98   95   96 2   
    99   95  109 1   
   100   97   98 1   
   101   97   99 1   
   102   97  102 1   
   103   98  103 1   
   104   98  104 1   
   105   98  105 1   
   106   99  106 1   
   107   99  107 1   
   108   99  108 1   
   109  109  110 1   
   110  109  117 1   
   111  110  111 1   
   112  110  113 1   
   113  110  118 1   
   114  111  112 2   
   115  111  123 1   
   116  113  114 1   
   117  113  119 1   
   118  113  120 1   
   119  114  115 1   
   120  114  116 2   
   121  115  121 1   
   122  115  122 1   
   123  123  124 1   
   124  123  135 1   
   125  124  125 1   
   126  124  127 1   
   127  124  136 1   
   128  125  126 2   
   129  125  144 1   
   130  127  128 1   
   131  127  137 1   
   132  127  138 1   
   133  128  129 ar  
   134  128  130 ar  
   135  129  131 ar  
   136  129  139 1   
   137  130  132 ar  
   138  130  140 1   
   139  131  133 ar  
   140  131  141 1   
   141  132  133 ar  
   142  132  142 1   
   143  133  134 1   
   144  134  143 1   
   145  144  145 1   
   146  144  153 1   
   147  145  146 1   
   148  145  148 1   
   149  145  154 1   
   150  146  147 2   
   151  146  159 1   
   152  148  149 1   
   153  148  155 1   
   154  148  156 1   
   155  149  150 1   
   156  149  157 1   
   157  149  158 1   
   158  150  151 1   
   159  150  152 1   
   160  159  160 1   
   161  159  168 1   
   162  160  161 1   
   163  160  163 1   
   164  160  169 1   
   165  161  162 2   
   166  161  174 1   
   167  163  164 1   
   168  163  170 1   
   169  163  171 1   
   170  164  165 1   
   171  164  172 1   
   172  164  173 1   
   173  165  166 1   
   174  165  167 1   
   175  174  175 1   
   176  174  179 1   
   177  175  176 1   
   178  175  177 1   
   179  175  178 1   
   180  181  182 1   
   181  181  183 1   
@<TRIPOS>SUBSTRUCTURE
     1 MOL         1 TEMP              0 ****  ****    0 ROOT
