@<TRIPOS>MOLECULE
MOL
  183   181     1     0     0
SMALL
resp


@<TRIPOS>ATOM
      1 C1         -0.7100    2.5560    6.2220 c3        1 MOL     -0.340705
      2 C2         -1.1450    2.5360    4.7400 c         1 MOL      0.855189
      3 O1         -0.4980    3.2310    3.8980 o         1 MOL     -0.655693
      4 H1         -1.2530    3.3410    6.7490 hc        1 MOL      0.074266
      5 H2         -0.9320    1.5920    6.6800 hc        1 MOL      0.074266
      6 H3          0.3600    2.7500    6.2840 hc        1 MOL      0.074266
      7 N1         -2.2250    1.7360    4.4590 n         1 MOL     -0.866464
      8 C3         -2.8420    1.6060    3.1020 c3        1 MOL      0.357237
      9 C4         -3.1510    3.0180    2.6360 c         1 MOL      0.492019
     10 O2         -3.9280    3.7460    3.2620 o         1 MOL     -0.580254
     11 C5         -4.0170    0.5780    3.0480 c3        1 MOL     -0.252899
     12 C6         -4.5650    0.3800    1.6710 c         1 MOL      0.801773
     13 O3         -5.5410   -0.3980    1.5660 o         1 MOL     -0.703655
     14 O4         -4.0840    0.9670    0.7150 o         1 MOL     -0.703655
     15 H4         -2.6420    1.2250    5.2220 hn        1 MOL      0.378087
     16 H5         -2.0520    1.1760    2.4720 h1        1 MOL      0.052924
     17 H6         -4.7840    1.0050    3.6880 hc        1 MOL      0.052612
     18 H7         -3.7340   -0.3160    3.5980 hc        1 MOL      0.052612
     19 N2         -2.5920    3.3920    1.4700 n         1 MOL     -0.122143
     20 C7         -2.7190    4.7220    0.8720 c3        1 MOL     -0.013647
     21 C8         -3.9960    4.8250    0.0460 c         1 MOL      0.472104
     22 O5         -4.8200    5.7110    0.3080 o         1 MOL     -0.587301
     23 C9         -1.4130    5.1240    0.1380 c3        1 MOL      0.248037
     24 C10        -0.2070    5.1940    1.0690 c3        1 MOL      0.204081
     25 C11        -1.5710    6.4260   -0.6780 c3        1 MOL     -0.442247
     26 C12         0.9840    5.9670    0.4820 c3        1 MOL     -0.222190
     27 H8         -2.0150    2.6520    1.0920 hn        1 MOL     -0.000796
     28 H9         -2.8330    5.3820    1.7430 h1        1 MOL      0.023347
     29 H10        -1.3140    4.2720   -0.5440 hc        1 MOL     -0.026745
     30 H11         0.1850    4.2250    1.3820 hc        1 MOL     -0.024459
     31 H12        -0.5660    5.7130    1.9650 hc        1 MOL     -0.024459
     32 H13        -2.3630    6.3070   -1.4180 hc        1 MOL      0.093248
     33 H14        -1.8720    7.2390   -0.0140 hc        1 MOL      0.093248
     34 H15        -0.6510    6.6710   -1.2230 hc        1 MOL      0.093248
     35 H16         0.5760    6.9780    0.4540 hc        1 MOL      0.034382
     36 H17         1.7900    6.0220    1.2180 hc        1 MOL      0.034382
     37 H18         1.2520    5.5670   -0.4940 hc        1 MOL      0.034382
     38 N3         -4.2600    3.8810   -0.8660 n         1 MOL     -0.329160
     39 C13        -5.2690    3.8750   -1.9240 c3        1 MOL      0.137663
     40 C14        -6.4610    2.9540   -1.5450 c         1 MOL      0.450742
     41 O6         -7.4520    3.0810   -2.2660 o         1 MOL     -0.580898
     42 C15        -4.6560    3.5050   -3.2790 c3        1 MOL     -0.268928
     43 C16        -3.7290    2.2750   -3.3740 c         1 MOL      0.826972
     44 O7         -3.1960    1.9190   -4.3980 o         1 MOL     -0.707868
     45 O8         -3.5180    1.6660   -2.3250 o         1 MOL     -0.707868
     46 H19        -3.6250    3.1010   -0.8500 hn        1 MOL      0.183397
     47 H20        -5.7340    4.8530   -1.9950 h1        1 MOL      0.051391
     48 H21        -4.0830    4.3800   -3.5930 hc        1 MOL      0.046878
     49 H22        -5.5180    3.3060   -3.9140 hc        1 MOL      0.046878
     50 N4         -6.4330    2.1490   -0.5300 n         1 MOL     -0.073883
     51 C17        -7.5940    1.3500   -0.0350 c3        1 MOL     -0.233387
     52 C18        -7.9390    0.1100   -0.8780 c         1 MOL      0.790378
     53 O9         -8.7810    0.1200   -1.7660 o         1 MOL     -0.600925
     54 H23        -5.5160    1.8940   -0.1730 hn        1 MOL      0.103260
     55 H24        -8.5210    1.9100    0.0430 h1        1 MOL      0.067539
     56 H25        -7.3230    0.9450    0.9380 h1        1 MOL      0.067539
     57 N5         -7.2990   -1.0300   -0.5830 n         1 MOL     -0.756857
     58 C19        -7.3340   -2.2780   -1.4100 c3        1 MOL      0.191643
     59 C20        -7.1920   -3.5070   -0.4590 c         1 MOL      0.398452
     60 O10        -7.4770   -4.6350   -0.8380 o         1 MOL     -0.579313
     61 C21        -6.1860   -2.2480   -2.3650 c3        1 MOL     -0.314142
     62 C22        -4.7670   -2.0080   -1.8300 c         1 MOL      0.787685
     63 O11        -3.9220   -1.5780   -2.6480 o         1 MOL     -0.740976
     64 O12        -4.4620   -2.1490   -0.6100 o         1 MOL     -0.740976
     65 H26        -6.5950   -0.9590    0.1370 hn        1 MOL      0.329140
     66 H27        -8.2240   -2.2210   -2.0320 h1        1 MOL      0.065568
     67 H28        -6.4130   -1.4020   -3.0230 hc        1 MOL      0.099289
     68 H29        -6.2520   -3.1840   -2.9030 hc        1 MOL      0.099289
     69 N6         -6.6330   -3.3040    0.7000 n         1 MOL     -0.148579
     70 C23        -6.3970   -4.2740    1.8130 c3        1 MOL     -0.155666
     71 C24        -4.9280   -4.5550    2.0810 c         1 MOL      0.569898
     72 O13        -4.6050   -5.3100    3.0070 o         1 MOL     -0.628267
     73 H30        -6.1120   -2.4440    0.8180 hn        1 MOL      0.182601
     74 H31        -6.9810   -5.1780    1.6470 h1        1 MOL      0.084845
     75 H32        -6.7520   -3.8060    2.7330 h1        1 MOL      0.084845
     76 N7         -3.9790   -4.0230    1.3440 n         1 MOL     -0.230040
     77 C25        -2.5510   -4.4130    1.4250 c3        1 MOL     -0.029329
     78 C26        -1.6580   -3.1710    1.4130 c         1 MOL      0.540116
     79 O14        -2.0640   -2.0250    1.2050 o         1 MOL     -0.629552
     80 C27        -2.2950   -5.4960    0.2950 c3        1 MOL     -0.183457
     81 C28        -2.7730   -5.1520   -1.0800 c3        1 MOL     -0.053149
     82 C29        -1.7860   -4.1680   -1.6870 c         1 MOL      0.448734
     83 N8         -0.9670   -4.6580   -2.5610 n         1 MOL     -0.628747
     84 O15        -1.6880   -2.9500   -1.5630 o         1 MOL     -0.431705
     85 H33        -4.2620   -3.4010    0.5910 hn        1 MOL      0.262726
     86 H34        -2.4900   -5.0250    2.3290 h1        1 MOL      0.089246
     87 H35        -2.9190   -6.3710    0.5030 hc        1 MOL      0.053384
     88 H36        -1.2690   -5.7950    0.0720 hc        1 MOL      0.053384
     89 H37        -3.7830   -4.7480   -1.0360 hc        1 MOL      0.049235
     90 H38        -2.8780   -6.0600   -1.6840 hc        1 MOL      0.049235
     91 H39        -1.0020   -5.6260   -2.8300 hn        1 MOL      0.302661
     92 H40        -0.0800   -4.1890   -2.6390 hn        1 MOL      0.302661
     93 N9         -0.3880   -3.3480    1.7930 n         1 MOL     -0.296661
     94 C30         0.7320   -2.4940    1.9530 c3        1 MOL     -0.221584
     95 C31         1.9000   -3.0330    1.1200 c         1 MOL      0.541998
     96 O16         2.5150   -3.9720    1.5900 o         1 MOL     -0.554819
     97 C32         0.9740   -2.3520    3.5360 c3        1 MOL      0.309544
     98 C33         2.2520   -1.5430    3.8530 c3        1 MOL     -0.261890
     99 C34        -0.2160   -1.8570    4.3150 c3        1 MOL     -0.261890
    100 H41        -0.1610   -4.2780    2.0990 hn        1 MOL      0.230037
    101 H42         0.4110   -1.5190    1.5920 h1        1 MOL      0.181326
    102 H43         1.0780   -3.3640    3.9340 hc        1 MOL     -0.045003
    103 H44         2.0110   -0.4840    3.8000 hc        1 MOL      0.051642
    104 H45         2.5830   -1.8540    4.8500 hc        1 MOL      0.051642
    105 H46         3.0340   -1.7590    3.1290 hc        1 MOL      0.051642
    106 H47        -0.5120   -0.9920    3.7240 hc        1 MOL      0.051642
    107 H48        -0.9950   -2.6120    4.3390 hc        1 MOL      0.051642
    108 H49         0.0250   -1.6110    5.3510 hc        1 MOL      0.051642
    109 N10         2.1960   -2.3940   -0.0270 n         1 MOL     -0.271885
    110 C35         3.3990   -2.6210   -0.8060 c3        1 MOL      0.059725
    111 C36         4.7170   -2.0900   -0.1760 c         1 MOL      0.395074
    112 O17         4.6330   -1.4090    0.8480 o         1 MOL     -0.331321
    113 C37         3.1200   -1.9940   -2.1810 c3        1 MOL     -0.466321
    114 C38         1.8660   -2.5460   -2.8650 c         1 MOL      0.836898
    115 N11         0.8360   -1.7820   -2.9520 n         1 MOL     -0.776640
    116 O18         1.7890   -3.7100   -3.1880 o         1 MOL     -0.640836
    117 H50         1.6350   -1.5900   -0.2800 hn        1 MOL      0.179936
    118 H51         3.5660   -3.6950   -0.8700 h1        1 MOL      0.065870
    119 H52         3.9130   -2.2540   -2.8850 hc        1 MOL      0.108285
    120 H53         3.1090   -0.9110   -2.0760 hc        1 MOL      0.108285
    121 H54         0.7890   -0.9630   -2.3620 hn        1 MOL      0.373877
    122 H55        -0.0720   -2.0900   -3.2670 hn        1 MOL      0.373877
    123 N12         5.8800   -2.2300   -0.8350 n         1 MOL     -0.477579
    124 C39         7.1460   -1.6380   -0.3630 c3        1 MOL      0.104842
    125 C40         7.0510   -0.1100   -0.3330 c         1 MOL      0.698869
    126 O19         7.3620    0.6010    0.6100 o         1 MOL     -0.539315
    127 C41         8.3830   -2.0670   -1.0130 c3        1 MOL     -0.170485
    128 C42         9.6480   -1.4910   -0.4430 ca        1 MOL      0.071757
    129 C43        10.1610   -1.9570    0.7740 ca        1 MOL     -0.240726
    130 C44        10.4070   -0.5260   -1.1990 ca        1 MOL     -0.240726
    131 C45        11.4050   -1.4550    1.3380 ca        1 MOL     -0.101440
    132 C46        11.6430   -0.1140   -0.7350 ca        1 MOL     -0.101440
    133 C47        12.1540   -0.5720    0.5120 ca        1 MOL      0.164613
    134 O20        13.2620    0.0050    0.9790 oh        1 MOL     -0.465809
    135 H56         5.8880   -2.8330   -1.6390 hn        1 MOL      0.306907
    136 H57         7.2480   -1.9000    0.6870 h1        1 MOL      0.072062
    137 H58         8.3190   -1.9930   -2.0980 hc        1 MOL      0.064576
    138 H59         8.4040   -3.1600   -0.9450 hc        1 MOL      0.064576
    139 H60         9.5950   -2.7110    1.2850 ha        1 MOL      0.146997
    140 H61        10.1100   -0.3070   -2.2110 ha        1 MOL      0.146997
    141 H62        11.8720   -1.8280    2.2340 ha        1 MOL      0.109468
    142 H63        12.2890    0.5920   -1.2450 ha        1 MOL      0.109468
    143 H64        13.6040    0.6930    0.3970 ho        1 MOL      0.368199
    144 N13         6.3030    0.4330   -1.3400 n         1 MOL     -0.515950
    145 C48         6.0590    1.8450   -1.5570 c3        1 MOL      0.065065
    146 C49         5.0630    2.5150   -0.6110 c         1 MOL      0.439819
    147 O21         5.0250    3.7440   -0.5410 o         1 MOL     -0.535021
    148 C50         5.7600    2.1500   -3.0730 c3        1 MOL      0.016390
    149 C51         4.4500    1.5340   -3.6050 c3        1 MOL     -0.342869
    150 C52         4.2810    1.6910   -5.1680 c         1 MOL      0.758327
    151 O22         5.1870    2.0900   -5.9110 o         1 MOL     -0.737195
    152 O23         3.2310    1.2650   -5.6730 o         1 MOL     -0.737195
    153 H65         6.0690   -0.1380   -2.1370 hn        1 MOL      0.279225
    154 H66         7.0260    2.3380   -1.4210 h1        1 MOL      0.032658
    155 H67         6.5900    1.7790   -3.6710 hc        1 MOL      0.011355
    156 H68         5.7340    3.2440   -3.0720 hc        1 MOL      0.011355
    157 H69         3.6650    2.1540   -3.1820 hc        1 MOL      0.090234
    158 H70         4.4050    0.4710   -3.3520 hc        1 MOL      0.090234
    159 N14         4.3230    1.6750    0.1250 n         1 MOL     -0.185732
    160 C53         3.4410    2.1440    1.2560 c3        1 MOL     -0.020744
    161 C54         4.1330    1.8950    2.6320 c         1 MOL      0.352911
    162 O24         3.9010    2.5950    3.6680 o         1 MOL     -0.545758
    163 C55         2.1660    1.3800    1.2090 c3        1 MOL      0.143323
    164 C56         1.3640    1.7840   -0.0260 c3        1 MOL      0.314421
    165 C57         0.1600    0.9260   -0.2280 c         1 MOL      0.395361
    166 O25        -0.9430    1.4280    0.1630 o         1 MOL     -0.654471
    167 O26         0.2310   -0.2400   -0.6610 o         1 MOL     -0.654471
    168 H71         4.4080    0.6860   -0.0600 hn        1 MOL      0.156269
    169 H72         3.1830    3.1950    1.1870 h1        1 MOL      0.092584
    170 H73         1.5800    1.5230    2.1100 hc        1 MOL      0.007254
    171 H74         2.3780    0.3310    1.0130 hc        1 MOL      0.007254
    172 H75         2.0010    1.7550   -0.9130 hc        1 MOL     -0.078496
    173 H76         1.1030    2.8370    0.0730 hc        1 MOL     -0.078496
    174 N15         4.9990    0.8550    2.7100 n         1 MOL      0.045085
    175 C58         5.8550    0.4780    3.8790 c3        1 MOL     -0.238091
    176 H77         5.4360    0.9100    4.7890 h1        1 MOL      0.088055
    177 H78         5.8860   -0.6070    3.9730 h1        1 MOL      0.088055
    178 H79         6.8650    0.8590    3.7280 h1        1 MOL      0.088055
    179 H80         5.1960    0.3880    1.8340 hn        1 MOL     -0.070295
    180 Ca1        -2.5290   -0.2820   -0.9230 Ca        1 MOL      1.734814
    181 O27        -1.2800    0.3190   -3.2000 oh        1 MOL     -0.844761
    182 H81        -2.0050    0.7550   -3.6520 ho        1 MOL      0.400946
    183 H82        -0.4990    0.7760   -3.5160 ho        1 MOL      0.400946
@<TRIPOS>BOND
     1    1    2 1   
     2    1    4 1   
     3    1    5 1   
     4    1    6 1   
     5    2    3 2   
     6    2    7 1   
     7    7    8 1   
     8    7   15 1   
     9    8    9 1   
    10    8   11 1   
    11    8   16 1   
    12    9   10 2   
    13    9   19 1   
    14   11   12 1   
    15   11   17 1   
    16   11   18 1   
    17   12   13 1   
    18   12   14 1   
    19   19   20 1   
    20   19   27 1   
    21   20   21 1   
    22   20   23 1   
    23   20   28 1   
    24   21   22 2   
    25   21   38 1   
    26   23   24 1   
    27   23   25 1   
    28   23   29 1   
    29   24   26 1   
    30   24   30 1   
    31   24   31 1   
    32   25   32 1   
    33   25   33 1   
    34   25   34 1   
    35   26   35 1   
    36   26   36 1   
    37   26   37 1   
    38   38   39 1   
    39   38   46 1   
    40   39   40 1   
    41   39   42 1   
    42   39   47 1   
    43   40   41 2   
    44   40   50 1   
    45   42   43 1   
    46   42   48 1   
    47   42   49 1   
    48   43   44 1   
    49   43   45 1   
    50   50   51 1   
    51   50   54 1   
    52   51   52 1   
    53   51   55 1   
    54   51   56 1   
    55   52   53 2   
    56   52   57 1   
    57   57   58 1   
    58   57   65 1   
    59   58   59 1   
    60   58   61 1   
    61   58   66 1   
    62   59   60 2   
    63   59   69 1   
    64   61   62 1   
    65   61   67 1   
    66   61   68 1   
    67   62   63 1   
    68   62   64 1   
    69   69   70 1   
    70   69   73 1   
    71   70   71 1   
    72   70   74 1   
    73   70   75 1   
    74   71   72 2   
    75   71   76 1   
    76   76   77 1   
    77   76   85 1   
    78   77   78 1   
    79   77   80 1   
    80   77   86 1   
    81   78   79 2   
    82   78   93 1   
    83   80   81 1   
    84   80   87 1   
    85   80   88 1   
    86   81   82 1   
    87   81   89 1   
    88   81   90 1   
    89   82   83 1   
    90   82   84 2   
    91   83   91 1   
    92   83   92 1   
    93   93   94 1   
    94   93  100 1   
    95   94   95 1   
    96   94   97 1   
    97   94  101 1   
    98   95   96 2   
    99   95  109 1   
   100   97   98 1   
   101   97   99 1   
   102   97  102 1   
   103   98  103 1   
   104   98  104 1   
   105   98  105 1   
   106   99  106 1   
   107   99  107 1   
   108   99  108 1   
   109  109  110 1   
   110  109  117 1   
   111  110  111 1   
   112  110  113 1   
   113  110  118 1   
   114  111  112 2   
   115  111  123 1   
   116  113  114 1   
   117  113  119 1   
   118  113  120 1   
   119  114  115 1   
   120  114  116 2   
   121  115  121 1   
   122  115  122 1   
   123  123  124 1   
   124  123  135 1   
   125  124  125 1   
   126  124  127 1   
   127  124  136 1   
   128  125  126 2   
   129  125  144 1   
   130  127  128 1   
   131  127  137 1   
   132  127  138 1   
   133  128  129 ar  
   134  128  130 ar  
   135  129  131 ar  
   136  129  139 1   
   137  130  132 ar  
   138  130  140 1   
   139  131  133 ar  
   140  131  141 1   
   141  132  133 ar  
   142  132  142 1   
   143  133  134 1   
   144  134  143 1   
   145  144  145 1   
   146  144  153 1   
   147  145  146 1   
   148  145  148 1   
   149  145  154 1   
   150  146  147 2   
   151  146  159 1   
   152  148  149 1   
   153  148  155 1   
   154  148  156 1   
   155  149  150 1   
   156  149  157 1   
   157  149  158 1   
   158  150  151 1   
   159  150  152 1   
   160  159  160 1   
   161  159  168 1   
   162  160  161 1   
   163  160  163 1   
   164  160  169 1   
   165  161  162 2   
   166  161  174 1   
   167  163  164 1   
   168  163  170 1   
   169  163  171 1   
   170  164  165 1   
   171  164  172 1   
   172  164  173 1   
   173  165  166 1   
   174  165  167 1   
   175  174  175 1   
   176  174  179 1   
   177  175  176 1   
   178  175  177 1   
   179  175  178 1   
   180  181  182 1   
   181  181  183 1   
@<TRIPOS>SUBSTRUCTURE
     1 MOL         1 TEMP              0 ****  ****    0 ROOT
