@<TRIPOS>MOLECULE
MOL
  179   176     1     0     0
SMALL
resp


@<TRIPOS>ATOM
      1 C1          2.6720    3.2270    4.1360 c3        1 MOL     -0.337765
      2 C2          1.7990    3.1830    2.9040 c         1 MOL      0.635998
      3 O1          2.2930    3.4630    1.8280 o         1 MOL     -0.648215
      4 H1          2.0490    3.3800    5.0160 hc        1 MOL      0.085254
      5 H2          3.2120    2.2840    4.2330 hc        1 MOL      0.085254
      6 H3          3.3840    4.0470    4.0490 hc        1 MOL      0.085254
      7 N1          0.5270    2.8640    3.0650 n         1 MOL     -0.410220
      8 C3         -0.4870    2.7160    2.0170 c3        1 MOL      0.059897
      9 C4         -1.0110    4.0930    1.6480 c         1 MOL      0.465492
     10 O2         -2.1090    4.5200    2.0230 o         1 MOL     -0.492662
     11 C5         -1.6500    1.8250    2.5590 c3        1 MOL     -0.239886
     12 C6         -2.6270    1.4270    1.4110 c         1 MOL      0.574392
     13 O3         -3.7160    0.9690    1.6490 o         1 MOL     -0.596384
     14 O4         -2.2880    1.5880    0.2260 o         1 MOL     -0.596384
     15 H4          0.1670    2.7920    4.0040 hn        1 MOL      0.274274
     16 H5         -0.1020    2.2350    1.1130 h1        1 MOL      0.117332
     17 H6         -2.2090    2.2820    3.3820 hc        1 MOL      0.084953
     18 H7         -1.2590    0.8830    2.9300 hc        1 MOL      0.084953
     19 N2         -0.2400    4.8370    0.8240 n         1 MOL     -0.399734
     20 C7         -0.4830    6.1840    0.2420 c3        1 MOL     -0.014750
     21 C8         -1.5790    6.3700   -0.8210 c         1 MOL      0.456712
     22 O5         -2.2380    7.3730   -0.8730 o         1 MOL     -0.501257
     23 C9          0.8130    6.7940   -0.2850 c3        1 MOL     -0.107107
     24 C10         2.0080    6.9060    0.7690 c3        1 MOL      0.093444
     25 C11         3.1360    7.7210    0.3420 c3        1 MOL      0.104212
     26 C12         4.3050    7.7190    1.2370 c3        1 MOL     -0.071792
     27 N3          4.9390    6.3650    1.3790 n4        1 MOL     -0.296682
     28 H8          0.4730    4.3240    0.3260 hn        1 MOL      0.339074
     29 H9         -0.7220    6.8430    1.0730 h1        1 MOL      0.121204
     30 H10         0.6870    7.7620   -0.7730 hc        1 MOL      0.039269
     31 H11         1.2640    6.1700   -1.0630 hc        1 MOL      0.039269
     32 H12         2.4100    5.8980    0.9070 hc        1 MOL     -0.027397
     33 H13         1.5660    7.1790    1.7210 hc        1 MOL     -0.027397
     34 H14         2.8450    8.7710    0.2260 hc        1 MOL      0.013267
     35 H15         3.4460    7.3980   -0.6500 hc        1 MOL      0.013267
     36 H16         3.9330    8.0720    2.1990 hx        1 MOL      0.092077
     37 H17         5.0330    8.4000    0.7910 hx        1 MOL      0.092077
     38 H18         4.4820    5.7920    2.0720 hn        1 MOL      0.319863
     39 H19         4.8360    5.8380    0.5220 hn        1 MOL      0.319863
     40 H20         5.8760    6.3540    1.7510 hn        1 MOL      0.319863
     41 N4         -1.7980    5.2960   -1.6490 n         1 MOL     -0.338354
     42 C13        -2.9950    5.1410   -2.5050 c3        1 MOL      0.067766
     43 C14        -4.2450    4.7930   -1.5970 c         1 MOL      0.400226
     44 O6         -5.3720    5.1580   -1.9240 o         1 MOL     -0.529054
     45 C15        -2.8390    3.9220   -3.4850 c3        1 MOL     -0.308307
     46 C16        -2.2730    2.6310   -2.8300 c         1 MOL      0.857108
     47 O7         -3.0420    1.6440   -2.6840 o         1 MOL     -0.743929
     48 O8         -1.0690    2.5250   -2.5280 o         1 MOL     -0.743929
     49 H21        -1.1610    4.5220   -1.5860 hn        1 MOL      0.195963
     50 H22        -3.2460    6.0060   -3.1190 h1        1 MOL      0.086797
     51 H23        -2.1440    4.1910   -4.2880 hc        1 MOL      0.083378
     52 H24        -3.7800    3.7190   -4.0020 hc        1 MOL      0.083378
     53 N5         -3.9950    4.0600   -0.5180 n         1 MOL      0.027486
     54 C17        -5.0100    3.7240    0.5250 c3        1 MOL     -0.095522
     55 C18        -5.9690    2.6390   -0.0330 c         1 MOL      0.512837
     56 O9         -7.1790    2.8120    0.0140 o         1 MOL     -0.559165
     57 H25        -3.0790    3.6360   -0.4490 hn        1 MOL     -0.000539
     58 H26        -5.5830    4.5890    0.8430 h1        1 MOL      0.087163
     59 H27        -4.3740    3.3190    1.3150 h1        1 MOL      0.087163
     60 N6         -5.4490    1.5690   -0.6670 n         1 MOL      0.004194
     61 C19        -6.2980    0.3970   -1.0370 c3        1 MOL     -0.179501
     62 C20        -6.5760   -0.6240    0.0740 c         1 MOL      0.398398
     63 O10        -7.5280   -1.4240   -0.0670 o         1 MOL     -0.536530
     64 C21        -5.7980   -0.2140   -2.3240 c3        1 MOL     -0.148519
     65 C22        -4.5060   -1.0160   -2.1700 c         1 MOL      0.563093
     66 N7         -4.1610   -1.7700   -3.1190 n         1 MOL     -0.643345
     67 O11        -3.7550   -0.9140   -1.2020 o         1 MOL     -0.456655
     68 H28        -4.4470    1.4490   -0.6730 hn        1 MOL     -0.188138
     69 H29        -7.2630    0.8250   -1.3200 h1        1 MOL      0.152875
     70 H30        -5.4930    0.5450   -3.0500 hc        1 MOL      0.093967
     71 H31        -6.5350   -0.8730   -2.7840 hc        1 MOL      0.093967
     72 H32        -4.7550   -1.8810   -3.9200 hn        1 MOL      0.308116
     73 H33        -3.3850   -2.4080   -3.0710 hn        1 MOL      0.308116
     74 N8         -5.9350   -0.6610    1.2490 n         1 MOL     -0.090744
     75 C23        -6.1720   -1.6870    2.3720 c3        1 MOL     -0.353127
     76 C24        -5.0020   -2.6910    2.4460 c         1 MOL      0.766115
     77 O12        -5.0320   -3.5750    3.2820 o         1 MOL     -0.611191
     78 H34        -5.1720   -0.0140    1.3920 hn        1 MOL      0.171874
     79 H35        -7.0450   -2.3290    2.2210 h1        1 MOL      0.151243
     80 H36        -6.1560   -1.1330    3.3070 h1        1 MOL      0.151243
     81 N9         -3.9450   -2.5170    1.6540 n         1 MOL     -0.567958
     82 C25        -2.8360   -3.4330    1.4840 c3        1 MOL      0.021546
     83 C26        -1.5030   -2.7020    1.3910 c         1 MOL      0.680363
     84 O13        -1.4380   -1.6950    0.7100 o         1 MOL     -0.629516
     85 C27        -2.9710   -4.3390    0.3010 c3        1 MOL      0.095637
     86 C28        -4.2570   -5.0590    0.0780 ca        1 MOL     -0.084212
     87 C29        -4.9990   -4.9230   -1.1090 ca        1 MOL     -0.045221
     88 C30        -4.6110   -5.9330    1.0730 ca        1 MOL     -0.045221
     89 C31        -6.1700   -5.7140   -1.2130 ca        1 MOL     -0.349878
     90 C32        -5.6830   -6.8040    0.9200 ca        1 MOL     -0.349878
     91 C33        -6.5520   -6.6750   -0.1950 ca        1 MOL      0.441475
     92 O14        -7.7330   -7.3550   -0.2870 oh        1 MOL     -0.536075
     93 H37        -3.9040   -1.6760    1.1010 hn        1 MOL      0.363335
     94 H38        -2.7790   -4.2070    2.2640 h1        1 MOL      0.054383
     95 H39        -2.1050   -5.0060    0.3250 hc        1 MOL     -0.037020
     96 H40        -2.8200   -3.6670   -0.5350 hc        1 MOL     -0.037020
     97 H41        -4.6760   -4.2470   -1.8890 ha        1 MOL      0.116497
     98 H42        -4.0230   -5.8950    1.9660 ha        1 MOL      0.116497
     99 H43        -6.7490   -5.5710   -2.1100 ha        1 MOL      0.161211
    100 H44        -5.9630   -7.3810    1.7900 ha        1 MOL      0.161211
    101 H45        -8.0950   -7.5630    0.5750 ho        1 MOL      0.393703
    102 N10        -0.4560   -3.3000    1.9270 n         1 MOL     -0.601896
    103 C34         0.9290   -2.8530    1.8420 c3        1 MOL      0.024999
    104 C35         1.8570   -3.8970    1.1710 c         1 MOL      0.498792
    105 O15         1.9170   -5.0320    1.7020 o         1 MOL     -0.540614
    106 C36         1.5760   -2.5250    3.2210 c3        1 MOL      0.058787
    107 C37         0.6850   -1.5280    4.0790 c3        1 MOL      0.107400
    108 C38         2.9960   -1.9640    3.0390 c3        1 MOL     -0.134986
    109 C39         1.1160   -1.4000    5.5320 c3        1 MOL     -0.170160
    110 H46        -0.6390   -4.1390    2.4630 hn        1 MOL      0.325701
    111 H47         0.9880   -1.9490    1.2320 h1        1 MOL      0.117888
    112 H48         1.7460   -3.4320    3.8120 hc        1 MOL      0.034722
    113 H49        -0.3570   -1.8200    4.2420 hc        1 MOL     -0.005448
    114 H50         0.8110   -0.5330    3.6470 hc        1 MOL     -0.005448
    115 H51         3.3880   -1.7810    4.0450 hc        1 MOL      0.019377
    116 H52         3.6780   -2.6270    2.5130 hc        1 MOL      0.019377
    117 H53         2.9600   -0.9880    2.5670 hc        1 MOL      0.019377
    118 H54         1.0210   -2.3910    5.9730 hc        1 MOL      0.039299
    119 H55         2.1090   -0.9680    5.6300 hc        1 MOL      0.039299
    120 H56         0.5580   -0.6970    6.1560 hc        1 MOL      0.039299
    121 N11         2.4580   -3.4820    0.0500 n         1 MOL     -0.223565
    122 C40         3.4130   -4.2650   -0.6670 c3        1 MOL      0.031874
    123 C41         4.8730   -3.8130   -0.4030 c         1 MOL      0.436461
    124 O16         5.0280   -2.6960    0.0900 o         1 MOL     -0.425477
    125 C42         3.0510   -4.2720   -2.1460 c3        1 MOL     -0.048106
    126 O17         3.1250   -2.9800   -2.8060 oh        1 MOL     -0.530115
    127 H57         2.2190   -2.5620   -0.2760 hn        1 MOL      0.212825
    128 H58         3.2950   -5.2760   -0.2820 h1        1 MOL      0.035830
    129 H59         2.0330   -4.6400   -2.1280 h1        1 MOL      0.088211
    130 H60         3.7000   -4.9190   -2.7410 h1        1 MOL      0.088211
    131 H61         2.4130   -2.3990   -2.5260 ho        1 MOL      0.312184
    132 N12         5.8750   -4.5970   -0.7260 n         1 MOL     -0.388584
    133 C43         7.2600   -4.2520   -0.3440 c3        1 MOL      0.060812
    134 C44         7.7390   -2.9510   -0.9170 c         1 MOL      0.502809
    135 O18         8.3670   -2.1930   -0.1580 o         1 MOL     -0.537961
    136 C45         8.2350   -5.3960   -0.6590 c3        1 MOL     -0.124986
    137 H62         5.6420   -5.4820   -1.1640 hn        1 MOL      0.272080
    138 H63         7.2460   -4.1770    0.7400 h1        1 MOL      0.097807
    139 H64         8.9890   -5.4050    0.1270 hc        1 MOL      0.049438
    140 H65         7.7510   -6.3800   -0.6330 hc        1 MOL      0.049438
    141 H66         8.7030   -5.2710   -1.6340 hc        1 MOL      0.049438
    142 N13         7.4450   -2.6290   -2.1490 n         1 MOL     -0.376639
    143 C46         7.6620   -1.3150   -2.7590 c3        1 MOL      0.110195
    144 C47         7.2690   -0.1230   -1.9520 c         1 MOL      0.326979
    145 O19         7.9240    0.9280   -1.9240 o         1 MOL     -0.499128
    146 C48         6.9540   -1.2950   -4.1180 c3        1 MOL     -0.371815
    147 H67         6.8880   -3.3290   -2.6440 hn        1 MOL      0.267538
    148 H68         8.7340   -1.1840   -2.9580 h1        1 MOL      0.075268
    149 H69         7.4150   -2.1070   -4.6860 hc        1 MOL      0.108322
    150 H70         5.8680   -1.3050   -3.9950 hc        1 MOL      0.108322
    151 H71         7.1820   -0.2980   -4.4910 hc        1 MOL      0.108322
    152 N14         6.1270   -0.2450   -1.2720 n         1 MOL      0.187019
    153 C49         5.5630    0.8590   -0.4890 c3        1 MOL     -0.661688
    154 C50         6.3770    0.9030    0.7770 c         1 MOL      0.662012
    155 O20         6.9170    1.9370    1.1370 o         1 MOL     -0.578463
    156 C51         4.0230    0.6870   -0.2340 c3        1 MOL      0.460030
    157 C52         3.1850    0.2250   -1.4160 c3        1 MOL     -0.303663
    158 C53         1.6980    0.0510   -1.1100 c         1 MOL      0.815122
    159 O21         1.0320    0.9810   -0.6420 o         1 MOL     -0.771750
    160 O22         1.0990   -1.0050   -1.2120 o         1 MOL     -0.771750
    161 H72         5.6600   -1.1400   -1.3230 hn        1 MOL      0.087127
    162 H73         5.6450    1.7980   -1.0370 h1        1 MOL      0.196621
    163 H74         3.6560    1.6120    0.2030 hc        1 MOL     -0.052285
    164 H75         3.9630    0.0090    0.6120 hc        1 MOL     -0.052285
    165 H76         3.6130   -0.7640   -1.6280 hc        1 MOL      0.038530
    166 H77         3.3960    0.8590   -2.2730 hc        1 MOL      0.038530
    167 N15         6.5230   -0.2660    1.4680 n         1 MOL     -0.196469
    168 C54         7.2570   -0.3280    2.7130 c3        1 MOL     -0.252070
    169 H78         6.5940   -0.0650    3.5370 h1        1 MOL      0.100357
    170 H79         7.6370   -1.3380    2.8620 h1        1 MOL      0.100357
    171 H80         8.0910    0.3730    2.6790 h1        1 MOL      0.100357
    172 H81         6.0840   -1.1100    1.1510 hn        1 MOL      0.180590
    173 Ca1        -1.2800   -0.0480   -1.4870 Ca        1 MOL      1.728436
    174 O23        -0.6310   -0.2760   -4.1540 oh        1 MOL     -0.817607
    175 H82        -1.0180   -0.1190   -5.0210 ho        1 MOL      0.407534
    176 H83         0.0280   -0.9480   -4.3020 ho        1 MOL      0.407534
    177 O24        -1.1510   -2.4550   -2.5550 oh        1 MOL     -0.817607
    178 H84        -0.8180   -2.5680   -3.4450 ho        1 MOL      0.407534
    179 H85        -0.7760   -3.1800   -2.0620 ho        1 MOL      0.407534
@<TRIPOS>BOND
     1    1    2 1   
     2    1    4 1   
     3    1    5 1   
     4    1    6 1   
     5    2    3 2   
     6    2    7 1   
     7    7    8 1   
     8    7   15 1   
     9    8    9 1   
    10    8   11 1   
    11    8   16 1   
    12    9   10 2   
    13    9   19 1   
    14   11   12 1   
    15   11   17 1   
    16   11   18 1   
    17   12   13 1   
    18   12   14 1   
    19   19   20 1   
    20   19   28 1   
    21   20   21 1   
    22   20   23 1   
    23   20   29 1   
    24   21   22 2   
    25   21   41 1   
    26   23   24 1   
    27   23   30 1   
    28   23   31 1   
    29   24   25 1   
    30   24   32 1   
    31   24   33 1   
    32   25   26 1   
    33   25   34 1   
    34   25   35 1   
    35   26   27 1   
    36   26   36 1   
    37   26   37 1   
    38   27   38 1   
    39   27   39 1   
    40   27   40 1   
    41   41   42 1   
    42   41   49 1   
    43   42   43 1   
    44   42   45 1   
    45   42   50 1   
    46   43   44 2   
    47   43   53 1   
    48   45   46 1   
    49   45   51 1   
    50   45   52 1   
    51   46   47 1   
    52   46   48 1   
    53   53   54 1   
    54   53   57 1   
    55   54   55 1   
    56   54   58 1   
    57   54   59 1   
    58   55   56 2   
    59   55   60 1   
    60   60   61 1   
    61   60   68 1   
    62   61   62 1   
    63   61   64 1   
    64   61   69 1   
    65   62   63 2   
    66   62   74 1   
    67   64   65 1   
    68   64   70 1   
    69   64   71 1   
    70   65   66 1   
    71   65   67 2   
    72   66   72 1   
    73   66   73 1   
    74   74   75 1   
    75   74   78 1   
    76   75   76 1   
    77   75   79 1   
    78   75   80 1   
    79   76   77 2   
    80   76   81 1   
    81   81   82 1   
    82   81   93 1   
    83   82   83 1   
    84   82   85 1   
    85   82   94 1   
    86   83   84 2   
    87   83  102 1   
    88   85   86 1   
    89   85   95 1   
    90   85   96 1   
    91   86   87 ar  
    92   86   88 ar  
    93   87   89 ar  
    94   87   97 1   
    95   88   90 ar  
    96   88   98 1   
    97   89   91 ar  
    98   89   99 1   
    99   90   91 ar  
   100   90  100 1   
   101   91   92 1   
   102   92  101 1   
   103  102  103 1   
   104  102  110 1   
   105  103  104 1   
   106  103  106 1   
   107  103  111 1   
   108  104  105 2   
   109  104  121 1   
   110  106  107 1   
   111  106  108 1   
   112  106  112 1   
   113  107  109 1   
   114  107  113 1   
   115  107  114 1   
   116  108  115 1   
   117  108  116 1   
   118  108  117 1   
   119  109  118 1   
   120  109  119 1   
   121  109  120 1   
   122  121  122 1   
   123  121  127 1   
   124  122  123 1   
   125  122  125 1   
   126  122  128 1   
   127  123  124 2   
   128  123  132 1   
   129  125  126 1   
   130  125  129 1   
   131  125  130 1   
   132  126  131 1   
   133  132  133 1   
   134  132  137 1   
   135  133  134 1   
   136  133  136 1   
   137  133  138 1   
   138  134  135 2   
   139  134  142 1   
   140  136  139 1   
   141  136  140 1   
   142  136  141 1   
   143  142  143 1   
   144  142  147 1   
   145  143  144 1   
   146  143  146 1   
   147  143  148 1   
   148  144  145 2   
   149  144  152 1   
   150  146  149 1   
   151  146  150 1   
   152  146  151 1   
   153  152  153 1   
   154  152  161 1   
   155  153  154 1   
   156  153  156 1   
   157  153  162 1   
   158  154  155 2   
   159  154  167 1   
   160  156  157 1   
   161  156  163 1   
   162  156  164 1   
   163  157  158 1   
   164  157  165 1   
   165  157  166 1   
   166  158  159 1   
   167  158  160 1   
   168  167  168 1   
   169  167  172 1   
   170  168  169 1   
   171  168  170 1   
   172  168  171 1   
   173  174  175 1   
   174  174  176 1   
   175  177  178 1   
   176  177  179 1   
@<TRIPOS>SUBSTRUCTURE
     1 MOL         1 TEMP              0 ****  ****    0 ROOT
