@<TRIPOS>MOLECULE
MOL
  189   185     1     0     0
SMALL
resp


@<TRIPOS>ATOM
      1 C1         -0.4240    0.9810    6.5000 c3        1 MOL     -0.316700
      2 C2         -0.5990    0.9300    4.9840 c         1 MOL      0.698924
      3 O1          0.2240    1.4980    4.2330 o         1 MOL     -0.594983
      4 H1          0.5240    0.5170    6.7720 hc        1 MOL      0.086051
      5 H2         -0.4280    2.0190    6.8320 hc        1 MOL      0.086051
      6 H3         -1.2420    0.4430    6.9790 hc        1 MOL      0.086051
      7 N1         -1.7870    0.5090    4.4710 n         1 MOL     -0.587982
      8 C3         -2.2780    0.9010    3.1380 c3        1 MOL      0.155217
      9 C4         -2.6470    2.3820    3.0010 c         1 MOL      0.604646
     10 O2         -3.4910    2.7860    3.7570 o         1 MOL     -0.600765
     11 C5         -3.3970   -0.1000    2.7190 c3        1 MOL     -0.189959
     12 C6         -4.0240    0.3580    1.4140 c         1 MOL      0.670829
     13 O3         -5.2290    0.2210    1.3700 o         1 MOL     -0.629918
     14 O4         -3.3360    0.9610    0.5430 o         1 MOL     -0.629918
     15 H4         -2.3600    0.0570    5.1690 hn        1 MOL      0.310130
     16 H5         -1.4710    0.6510    2.4510 h1        1 MOL      0.041181
     17 H6         -4.1890   -0.1150    3.4830 hc        1 MOL      0.044277
     18 H7         -3.0610   -1.1320    2.6840 hc        1 MOL      0.044277
     19 N2         -2.0660    3.0910    2.1040 n         1 MOL     -0.205354
     20 C7         -2.2220    4.5400    1.9220 c3        1 MOL     -0.014886
     21 C8         -3.4670    4.7760    1.1180 c         1 MOL      0.473931
     22 O5         -3.8900    5.9400    1.1540 o         1 MOL     -0.559719
     23 C9         -0.8420    4.9710    1.4130 c3        1 MOL     -0.154452
     24 C10        -0.8160    4.8980   -0.1230 c3        1 MOL      0.146331
     25 C11         0.5280    5.1180   -0.7670 c3        1 MOL      0.020208
     26 C12         0.5330    5.3010   -2.2770 c3        1 MOL     -0.098926
     27 N3          0.0660    4.1140   -2.9810 n4        1 MOL     -0.169681
     28 H8         -1.5600    2.5020    1.4590 hn        1 MOL      0.059802
     29 H9         -2.4120    5.0540    2.8600 h1        1 MOL      0.096738
     30 H10        -0.0410    4.3760    1.8510 hc        1 MOL      0.060103
     31 H11        -0.6070    6.0100    1.6640 hc        1 MOL      0.060103
     32 H12        -1.5580    5.6560   -0.3930 hc        1 MOL      0.039427
     33 H13        -1.1790    3.9200   -0.4330 hc        1 MOL      0.039427
     34 H14         1.2470    4.3610   -0.4750 hc        1 MOL     -0.011501
     35 H15         0.9540    6.0470   -0.3600 hc        1 MOL     -0.011501
     36 H16         1.5660    5.5870   -2.4550 hx        1 MOL      0.082847
     37 H17        -0.1370    6.1410   -2.4320 hx        1 MOL      0.082847
     38 H18         0.4430    3.3110   -2.5010 hn        1 MOL      0.248460
     39 H19        -0.9350    3.9960   -3.0010 hn        1 MOL      0.248460
     40 H20         0.4210    4.0570   -3.9310 hn        1 MOL      0.248460
     41 N4         -3.9520    3.8210    0.3750 n         1 MOL     -0.128623
     42 C13        -4.9380    4.0080   -0.6980 c3        1 MOL     -0.090412
     43 C14        -6.3920    3.6450   -0.2750 c         1 MOL      0.649920
     44 O6         -7.2740    4.5180   -0.3860 o         1 MOL     -0.555916
     45 C15        -4.6080    3.2440   -1.9520 c3        1 MOL      0.133954
     46 C16        -3.1460    3.3610   -2.3780 c         1 MOL      0.542847
     47 O7         -2.8580    4.4610   -2.9040 o         1 MOL     -0.657088
     48 O8         -2.3150    2.4760   -2.1610 o         1 MOL     -0.657088
     49 H21        -3.5160    2.9070    0.4540 hn        1 MOL     -0.039038
     50 H22        -5.0000    5.0740   -0.9250 h1        1 MOL      0.070512
     51 H23        -5.3460    3.6820   -2.6320 hc        1 MOL     -0.028257
     52 H24        -4.8510    2.1850   -1.8390 hc        1 MOL     -0.028257
     53 N5         -6.6220    2.4780    0.3690 n         1 MOL     -0.512076
     54 C17        -7.9580    1.7450    0.2510 c3        1 MOL     -0.066604
     55 C18        -8.1120    0.6830   -0.8270 c         1 MOL      0.409084
     56 O9         -9.1740    0.4770   -1.4670 o         1 MOL     -0.564621
     57 H25        -5.8480    1.8760    0.6070 hn        1 MOL      0.332725
     58 H26        -8.7060    2.5120    0.0340 h1        1 MOL      0.095396
     59 H27        -8.1920    1.2620    1.2020 h1        1 MOL      0.095396
     60 N6         -7.0020   -0.0030   -1.1180 n         1 MOL     -0.259092
     61 C19        -6.9250   -1.0090   -2.1910 c3        1 MOL      0.126759
     62 C20        -6.7940   -2.4330   -1.6310 c         1 MOL      0.344439
     63 O10        -6.7140   -3.3320   -2.4560 o         1 MOL     -0.524505
     64 C21        -5.9040   -0.5970   -3.2580 c3        1 MOL     -0.437124
     65 C22        -4.4880   -0.6840   -2.8280 c         1 MOL      0.843415
     66 O11        -3.5860   -0.3530   -3.6590 o         1 MOL     -0.766618
     67 O12        -4.2050   -1.1210   -1.6720 o         1 MOL     -0.766618
     68 H28        -6.1820    0.2220   -0.5640 hn        1 MOL      0.301047
     69 H29        -7.8760   -1.0050   -2.7320 h1        1 MOL      0.100992
     70 H30        -6.1510    0.4410   -3.5030 hc        1 MOL      0.126313
     71 H31        -6.1140   -1.3210   -4.0380 hc        1 MOL      0.126313
     72 N7         -6.7290   -2.5980   -0.3300 n         1 MOL     -0.229104
     73 C23        -6.6870   -3.8320    0.4440 c3        1 MOL     -0.088409
     74 C24        -5.2410   -4.3670    0.6010 c         1 MOL      0.539814
     75 O13        -5.0540   -5.4000    1.1960 o         1 MOL     -0.572207
     76 H32        -6.6880   -1.7190    0.1750 hn        1 MOL      0.188239
     77 H33        -7.3670   -4.6140    0.0880 h1        1 MOL      0.099410
     78 H34        -7.0410   -3.6180    1.4480 h1        1 MOL      0.099410
     79 N8         -4.1860   -3.7960   -0.0110 n         1 MOL     -0.271775
     80 C25        -2.8380   -4.4510   -0.0260 c3        1 MOL     -0.086112
     81 C26        -1.7770   -3.4340    0.2870 c         1 MOL      0.694419
     82 O14        -1.9740   -2.2410    0.1750 o         1 MOL     -0.655625
     83 C27        -2.5160   -5.1020   -1.3580 c3        1 MOL      0.476831
     84 C28        -3.1140   -6.4680   -1.3300 c3        1 MOL     -0.414945
     85 O15        -2.9850   -4.4110   -2.4030 oh        1 MOL     -0.639062
     86 H35        -4.3070   -2.9870   -0.6050 hn        1 MOL      0.172642
     87 H36        -2.8090   -5.1810    0.7840 h1        1 MOL      0.094291
     88 H37        -1.4330   -5.2120   -1.4280 h1        1 MOL      0.010375
     89 H38        -3.8830   -4.1160   -2.2440 ho        1 MOL      0.412084
     90 H39        -2.8240   -6.9530   -0.3980 hc        1 MOL      0.097321
     91 H40        -4.2010   -6.4900   -1.4620 hc        1 MOL      0.097321
     92 H41        -2.6220   -7.0200   -2.1340 hc        1 MOL      0.097321
     93 N9         -0.6390   -3.9850    0.7400 n         1 MOL     -0.661708
     94 C29         0.5950   -3.2070    1.0080 c3        1 MOL      0.239217
     95 C30         1.5590   -3.5670   -0.1570 c         1 MOL      0.388367
     96 O16         1.5180   -4.6950   -0.6430 o         1 MOL     -0.524055
     97 C31         1.0640   -3.5870    2.5020 c3        1 MOL      0.070834
     98 C32         0.0070   -3.1480    3.5760 c3        1 MOL      0.215396
     99 C33         2.4930   -3.0000    2.7410 c3        1 MOL     -0.312459
    100 C34         0.3520   -3.7080    4.9270 c3        1 MOL     -0.359779
    101 H42        -0.6140   -4.9850    0.8430 hn        1 MOL      0.293455
    102 H43         0.3890   -2.1390    0.9770 h1        1 MOL      0.011539
    103 H44         1.0430   -4.6740    2.5320 hc        1 MOL      0.018819
    104 H45        -0.9760   -3.5930    3.3950 hc        1 MOL     -0.020200
    105 H46        -0.1380   -2.0680    3.5900 hc        1 MOL     -0.020200
    106 H47         2.4170   -1.9410    2.9710 hc        1 MOL      0.048119
    107 H48         2.7720   -3.4950    3.6700 hc        1 MOL      0.048119
    108 H49         3.2530   -3.1920    1.9860 hc        1 MOL      0.048119
    109 H50        -0.5050   -3.5780    5.5960 hc        1 MOL      0.083238
    110 H51         0.7140   -4.7170    4.7680 hc        1 MOL      0.083238
    111 H52         1.1230   -3.1730    5.4870 hc        1 MOL      0.083238
    112 N10         2.3270   -2.5340   -0.5700 n         1 MOL     -0.144936
    113 C35         3.5510   -2.5640   -1.4790 c3        1 MOL      0.007555
    114 C36         4.8580   -2.1810   -0.8520 c         1 MOL      0.266965
    115 O17         4.8870   -1.7050    0.3380 o         1 MOL     -0.239388
    116 C37         3.3360   -1.6540   -2.6960 c3        1 MOL      0.167993
    117 C38         2.1860   -2.0800   -3.6140 c3        1 MOL     -0.315981
    118 O18         2.9220   -0.3950   -2.2170 oh        1 MOL     -0.548244
    119 H53         2.1450   -1.6200   -0.1890 hn        1 MOL      0.193908
    120 H54         3.6850   -3.5680   -1.8820 h1        1 MOL      0.067834
    121 H55         4.2440   -1.5570   -3.2970 h1        1 MOL      0.051464
    122 H56         2.0220   -0.5430   -1.8980 ho        1 MOL      0.297495
    123 H57         2.1960   -3.1580   -3.8030 hc        1 MOL      0.089058
    124 H58         1.1950   -1.8320   -3.2200 hc        1 MOL      0.089058
    125 H59         2.2630   -1.7100   -4.6350 hc        1 MOL      0.089058
    126 N11         5.9880   -2.3350   -1.4860 n         1 MOL     -0.275646
    127 C39         7.4020   -2.2180   -0.9460 c3        1 MOL     -0.066915
    128 C40         7.5870   -0.9690   -0.0430 c         1 MOL      0.351528
    129 O19         8.1590   -1.0040    1.0800 o         1 MOL     -0.483951
    130 C41         8.4640   -2.2720   -2.0860 c3        1 MOL      0.204620
    131 C42         8.6170   -3.7150   -2.6000 c3        1 MOL     -0.395550
    132 O20         8.1590   -1.4520   -3.1580 oh        1 MOL     -0.651167
    133 H60         5.9300   -2.6370   -2.4490 hn        1 MOL      0.269453
    134 H61         7.5640   -3.0850   -0.3150 h1        1 MOL      0.147273
    135 H62         9.4050   -1.9210   -1.6480 h1        1 MOL      0.053103
    136 H63         8.8310   -1.6580   -3.8080 ho        1 MOL      0.428486
    137 H64         7.6640   -4.2530   -2.7170 hc        1 MOL      0.124269
    138 H65         9.2490   -3.7750   -3.4770 hc        1 MOL      0.124269
    139 H66         9.1410   -4.1660   -1.7640 hc        1 MOL      0.124269
    140 N12         7.0480    0.2420   -0.4380 n         1 MOL     -0.275767
    141 C43         7.1740    1.5300    0.3320 c3        1 MOL      0.010169
    142 C44         6.1230    1.5160    1.4380 c         1 MOL      0.436886
    143 O21         6.4070    2.1630    2.4350 o         1 MOL     -0.517839
    144 C45         7.0680    2.8370   -0.5500 c3        1 MOL     -0.570729
    145 C46         8.5120    3.0500   -1.1540 c3        1 MOL      0.677217
    146 C47         8.4790    4.0030   -2.3520 c3        1 MOL     -0.237665
    147 C48         9.9500    4.3290   -2.7080 c3        1 MOL     -0.199657
    148 N13        10.7700    3.0740   -2.8700 n4        1 MOL     -0.197192
    149 H67         6.5110    0.2450   -1.2890 hn        1 MOL      0.273005
    150 H68         8.1310    1.4710    0.8580 h1        1 MOL      0.117458
    151 H69         6.8480    3.6690    0.1180 hc        1 MOL      0.166376
    152 H70         6.4010    2.6770   -1.3920 hc        1 MOL      0.166376
    153 H71         8.8280    2.0910   -1.5550 hc        1 MOL     -0.133029
    154 H72         9.2220    3.2760   -0.3680 hc        1 MOL     -0.133029
    155 H73         7.9540    4.9200   -2.0700 hc        1 MOL      0.083260
    156 H74         7.8780    3.5250   -3.1190 hc        1 MOL      0.083260
    157 H75        10.4030    4.9770   -1.9630 hx        1 MOL      0.166409
    158 H76         9.9460    4.7500   -3.7170 hx        1 MOL      0.166409
    159 H77        11.1000    2.6980   -1.9970 hn        1 MOL      0.288034
    160 H78        10.2990    2.3150   -3.3470 hn        1 MOL      0.288034
    161 H79        11.5750    3.2530   -3.4410 hn        1 MOL      0.288034
    162 N14         4.9630    0.8780    1.3130 n         1 MOL     -0.172952
    163 C49         4.0800    0.7350    2.4340 c3        1 MOL     -0.149051
    164 C50         4.5410   -0.2560    3.4820 c         1 MOL      0.438666
    165 O22         4.3480   -0.0550    4.6960 o         1 MOL     -0.535952
    166 C51         2.6310    0.4470    1.8370 c3        1 MOL      0.192647
    167 C52         1.9420    1.4810    0.9490 c3        1 MOL     -0.347743
    168 C53         0.7480    0.9180    0.1670 c         1 MOL      0.904160
    169 O23         0.8000   -0.1600   -0.4950 o         1 MOL     -0.794749
    170 O24        -0.3630    1.5550    0.2220 o         1 MOL     -0.794749
    171 H80         4.8660    0.2310    0.5340 hn        1 MOL      0.107695
    172 H81         4.0120    1.7570    2.8120 h1        1 MOL      0.128390
    173 H82         1.9320    0.3550    2.6750 hc        1 MOL      0.018844
    174 H83         2.6500   -0.5270    1.3440 hc        1 MOL      0.018844
    175 H84         2.6200    1.9650    0.2580 hc        1 MOL      0.077451
    176 H85         1.5150    2.1940    1.6600 hc        1 MOL      0.077451
    177 N15         5.2940   -1.2380    3.0490 n         1 MOL     -0.003735
    178 C54         6.1210   -2.1560    3.9020 c3        1 MOL     -0.265574
    179 H86         6.4450   -3.0100    3.3070 h1        1 MOL      0.102761
    180 H87         6.9940   -1.6190    4.2720 h1        1 MOL      0.102761
    181 H88         5.5250   -2.5060    4.7450 h1        1 MOL      0.102761
    182 H89         5.3740   -1.4030    2.0590 hn        1 MOL      0.069065
    183 Ca1        -1.8320   -0.0240   -1.3440 Ca        1 MOL      1.715303
    184 O25        -1.2140   -2.1140   -2.9620 oh        1 MOL     -0.761460
    185 H90        -1.0690   -2.0560   -3.9010 ho        1 MOL      0.381871
    186 H91        -1.6770   -2.9440   -2.8410 ho        1 MOL      0.381871
    187 O26        -0.0550    0.7070   -3.1700 oh        1 MOL     -0.761460
    188 H92         0.8430    0.7460   -3.5040 ho        1 MOL      0.381871
    189 H93        -0.6020    0.8840   -3.9370 ho        1 MOL      0.381871
@<TRIPOS>BOND
     1    1    2 1   
     2    1    4 1   
     3    1    5 1   
     4    1    6 1   
     5    2    3 2   
     6    2    7 1   
     7    7    8 1   
     8    7   15 1   
     9    8    9 1   
    10    8   11 1   
    11    8   16 1   
    12    9   10 2   
    13    9   19 1   
    14   11   12 1   
    15   11   17 1   
    16   11   18 1   
    17   12   13 1   
    18   12   14 1   
    19   19   20 1   
    20   19   28 1   
    21   20   21 1   
    22   20   23 1   
    23   20   29 1   
    24   21   22 2   
    25   21   41 1   
    26   23   24 1   
    27   23   30 1   
    28   23   31 1   
    29   24   25 1   
    30   24   32 1   
    31   24   33 1   
    32   25   26 1   
    33   25   34 1   
    34   25   35 1   
    35   26   27 1   
    36   26   36 1   
    37   26   37 1   
    38   27   38 1   
    39   27   39 1   
    40   27   40 1   
    41   41   42 1   
    42   41   49 1   
    43   42   43 1   
    44   42   45 1   
    45   42   50 1   
    46   43   44 2   
    47   43   53 1   
    48   45   46 1   
    49   45   51 1   
    50   45   52 1   
    51   46   47 1   
    52   46   48 1   
    53   53   54 1   
    54   53   57 1   
    55   54   55 1   
    56   54   58 1   
    57   54   59 1   
    58   55   56 2   
    59   55   60 1   
    60   60   61 1   
    61   60   68 1   
    62   61   62 1   
    63   61   64 1   
    64   61   69 1   
    65   62   63 2   
    66   62   72 1   
    67   64   65 1   
    68   64   70 1   
    69   64   71 1   
    70   65   66 1   
    71   65   67 1   
    72   72   73 1   
    73   72   76 1   
    74   73   74 1   
    75   73   77 1   
    76   73   78 1   
    77   74   75 2   
    78   74   79 1   
    79   79   80 1   
    80   79   86 1   
    81   80   81 1   
    82   80   83 1   
    83   80   87 1   
    84   81   82 2   
    85   81   93 1   
    86   83   84 1   
    87   83   85 1   
    88   83   88 1   
    89   84   90 1   
    90   84   91 1   
    91   84   92 1   
    92   85   89 1   
    93   93   94 1   
    94   93  101 1   
    95   94   95 1   
    96   94   97 1   
    97   94  102 1   
    98   95   96 2   
    99   95  112 1   
   100   97   98 1   
   101   97   99 1   
   102   97  103 1   
   103   98  100 1   
   104   98  104 1   
   105   98  105 1   
   106   99  106 1   
   107   99  107 1   
   108   99  108 1   
   109  100  109 1   
   110  100  110 1   
   111  100  111 1   
   112  112  113 1   
   113  112  119 1   
   114  113  114 1   
   115  113  116 1   
   116  113  120 1   
   117  114  115 2   
   118  114  126 1   
   119  116  117 1   
   120  116  118 1   
   121  116  121 1   
   122  117  123 1   
   123  117  124 1   
   124  117  125 1   
   125  118  122 1   
   126  126  127 1   
   127  126  133 1   
   128  127  128 1   
   129  127  130 1   
   130  127  134 1   
   131  128  129 2   
   132  128  140 1   
   133  130  131 1   
   134  130  132 1   
   135  130  135 1   
   136  131  137 1   
   137  131  138 1   
   138  131  139 1   
   139  132  136 1   
   140  140  141 1   
   141  140  149 1   
   142  141  142 1   
   143  141  144 1   
   144  141  150 1   
   145  142  143 2   
   146  142  162 1   
   147  144  145 1   
   148  144  151 1   
   149  144  152 1   
   150  145  146 1   
   151  145  153 1   
   152  145  154 1   
   153  146  147 1   
   154  146  155 1   
   155  146  156 1   
   156  147  148 1   
   157  147  157 1   
   158  147  158 1   
   159  148  159 1   
   160  148  160 1   
   161  148  161 1   
   162  162  163 1   
   163  162  171 1   
   164  163  164 1   
   165  163  166 1   
   166  163  172 1   
   167  164  165 2   
   168  164  177 1   
   169  166  167 1   
   170  166  173 1   
   171  166  174 1   
   172  167  168 1   
   173  167  175 1   
   174  167  176 1   
   175  168  169 1   
   176  168  170 1   
   177  177  178 1   
   178  177  182 1   
   179  178  179 1   
   180  178  180 1   
   181  178  181 1   
   182  184  185 1   
   183  184  186 1   
   184  187  188 1   
   185  187  189 1   
@<TRIPOS>SUBSTRUCTURE
     1 MOL         1 TEMP              0 ****  ****    0 ROOT
