@<TRIPOS>MOLECULE
MOL
  189   185     1     0     0
SMALL
resp


@<TRIPOS>ATOM
      1 C1          0.3790    3.1200    4.9500 c3        1 MOL     -0.350878
      2 C2         -0.0760    2.7100    3.5470 c         1 MOL      0.617475
      3 O1          0.6210    2.9280    2.5280 o         1 MOL     -0.635061
      4 H1         -0.4690    3.5250    5.5030 hc        1 MOL      0.090252
      5 H2          0.7710    2.2480    5.4740 hc        1 MOL      0.090252
      6 H3          1.1570    3.8790    4.8730 hc        1 MOL      0.090252
      7 N1         -1.2130    2.1160    3.3980 n         1 MOL     -0.367179
      8 C3         -2.0140    1.8660    2.1660 c3        1 MOL      0.132292
      9 C4         -2.5760    3.2060    1.6600 c         1 MOL      0.239886
     10 O2         -3.6370    3.6960    2.1410 o         1 MOL     -0.499117
     11 C5         -3.0400    0.7770    2.4640 c3        1 MOL     -0.157970
     12 C6         -3.9410    0.4810    1.2930 c         1 MOL      0.839476
     13 O3         -3.4710    0.7510    0.1840 o         1 MOL     -0.741423
     14 O4         -5.1220   -0.0340    1.4360 o         1 MOL     -0.741423
     15 H4         -1.6570    1.9420    4.2920 hn        1 MOL      0.255868
     16 H5         -1.2950    1.5200    1.4240 h1        1 MOL      0.043867
     17 H6         -3.6960    1.0380    3.2880 hc        1 MOL      0.022896
     18 H7         -2.5560   -0.1430    2.7920 hc        1 MOL      0.022896
     19 N2         -1.8480    3.8470    0.7650 n         1 MOL     -0.099759
     20 C7         -2.0420    5.1820    0.1060 c3        1 MOL     -0.110902
     21 C8         -2.9890    5.1240   -1.1360 c         1 MOL      0.557553
     22 O5         -3.4290    6.1530   -1.5470 o         1 MOL     -0.556032
     23 C9         -0.6990    5.8320   -0.2850 c3        1 MOL     -0.091911
     24 C10         0.2620    6.1580    0.8660 c3        1 MOL      0.043558
     25 C11        -0.1260    7.1060    1.8920 c3        1 MOL     -0.033009
     26 C12         1.0030    7.9210    2.5260 c3        1 MOL     -0.075143
     27 N3          1.6870    7.2490    3.6550 n4        1 MOL     -0.269235
     28 H8         -0.9910    3.3910    0.4830 hn        1 MOL      0.258442
     29 H9         -2.5540    5.7700    0.8770 h1        1 MOL      0.087773
     30 H10        -0.9230    6.7710   -0.7960 hc        1 MOL      0.064073
     31 H11        -0.2660    5.1830   -1.0430 hc        1 MOL      0.064073
     32 H12         1.1090    6.6380    0.3680 hc        1 MOL     -0.005064
     33 H13         0.7080    5.2700    1.3210 hc        1 MOL     -0.005064
     34 H14        -0.7300    6.5960    2.6480 hc        1 MOL      0.054387
     35 H15        -0.8600    7.8300    1.5680 hc        1 MOL      0.054387
     36 H16         0.7740    8.8990    2.9380 hx        1 MOL      0.107617
     37 H17         1.7330    8.0750    1.7260 hx        1 MOL      0.107617
     38 H18         1.1210    7.0500    4.4650 hn        1 MOL      0.307365
     39 H19         2.0670    6.3720    3.3320 hn        1 MOL      0.307365
     40 H20         2.4870    7.8070    3.9200 hn        1 MOL      0.307365
     41 N4         -3.4540    3.9190   -1.6260 n         1 MOL     -0.362991
     42 C13        -4.5400    3.7760   -2.6680 c3        1 MOL      0.082604
     43 C14        -5.7250    2.9300   -2.0560 c         1 MOL      0.503098
     44 O6         -6.6460    2.6420   -2.7830 o         1 MOL     -0.525548
     45 C15        -3.9720    3.1450   -3.9500 c3        1 MOL     -0.190175
     46 C16        -3.0550    1.8830   -3.8070 c         1 MOL      0.714192
     47 O7         -2.8060    1.4220   -2.6970 o         1 MOL     -0.678997
     48 O8         -2.5360    1.3360   -4.8180 o         1 MOL     -0.678997
     49 H21        -3.1750    3.0560   -1.1760 hn        1 MOL      0.169221
     50 H22        -5.0330    4.7270   -2.8620 h1        1 MOL      0.084950
     51 H23        -3.4140    3.9400   -4.4480 hc        1 MOL      0.048747
     52 H24        -4.8250    2.9310   -4.5880 hc        1 MOL      0.048747
     53 N5         -5.7960    2.7220   -0.7470 n         1 MOL     -0.399486
     54 C17        -6.9540    2.1080   -0.0480 c3        1 MOL     -0.069103
     55 C18        -7.5020    0.7720   -0.5820 c         1 MOL      0.483932
     56 O9         -8.6890    0.4840   -0.4630 o         1 MOL     -0.603295
     57 H25        -4.9470    2.8760   -0.2160 hn        1 MOL      0.249898
     58 H26        -7.7610    2.7970   -0.3070 h1        1 MOL      0.091394
     59 H27        -6.9280    2.1410    1.0360 h1        1 MOL      0.091394
     60 N6         -6.6570   -0.0900   -1.1000 n         1 MOL     -0.102607
     61 C19        -6.9580   -1.4230   -1.7220 c3        1 MOL     -0.188780
     62 C20        -7.1030   -2.5820   -0.7900 c         1 MOL      0.526403
     63 O10        -7.4580   -3.6210   -1.3070 o         1 MOL     -0.545897
     64 C21        -6.0070   -1.7190   -2.8510 c3        1 MOL     -0.281983
     65 C22        -4.5870   -1.8410   -2.4010 c         1 MOL      0.782980
     66 O11        -3.7230   -1.6340   -3.2360 o         1 MOL     -0.685099
     67 O12        -4.2250   -2.1010   -1.2300 o         1 MOL     -0.685099
     68 H28        -5.6630    0.0660   -0.9510 hn        1 MOL      0.154998
     69 H29        -7.8960   -1.2630   -2.2620 h1        1 MOL      0.155645
     70 H30        -6.1320   -0.9560   -3.6240 hc        1 MOL      0.105406
     71 H31        -6.2230   -2.6890   -3.3020 hc        1 MOL      0.105406
     72 N7         -6.9820   -2.3680    0.5030 n         1 MOL     -0.335370
     73 C23        -6.9930   -3.4350    1.5130 c3        1 MOL     -0.135784
     74 C24        -5.6680   -4.1450    1.7780 c         1 MOL      0.505115
     75 O13        -5.7010   -5.1340    2.5350 o         1 MOL     -0.576419
     76 H32        -6.5950   -1.5010    0.8490 hn        1 MOL      0.320172
     77 H33        -7.6450   -4.2490    1.1730 h1        1 MOL      0.099935
     78 H34        -7.3560   -3.0060    2.4440 h1        1 MOL      0.099935
     79 N8         -4.5750   -3.6600    1.2160 n         1 MOL     -0.084225
     80 C25        -3.1960   -4.3230    1.3280 c3        1 MOL     -0.524106
     81 C26        -2.0230   -3.2700    1.3990 c         1 MOL      0.942419
     82 O14        -2.1760   -2.1840    0.8770 o         1 MOL     -0.666296
     83 C27        -2.9270   -5.3000    0.1680 c3        1 MOL      0.501418
     84 C28        -3.6750   -6.5720    0.3180 c3        1 MOL     -0.387719
     85 O15        -3.2020   -4.7860   -1.1510 oh        1 MOL     -0.626985
     86 H35        -4.6010   -2.7150    0.8640 hn        1 MOL      0.164327
     87 H36        -3.1550   -4.9090    2.2460 h1        1 MOL      0.163907
     88 H37        -1.8540   -5.5400    0.1300 h1        1 MOL      0.014884
     89 H38        -3.8960   -4.1280   -1.0920 ho        1 MOL      0.389851
     90 H39        -3.5870   -7.1090   -0.6210 hc        1 MOL      0.099016
     91 H40        -3.1730   -7.2630    0.9910 hc        1 MOL      0.099016
     92 H41        -4.7090   -6.4850    0.6350 hc        1 MOL      0.099016
     93 N9         -0.9390   -3.5630    2.0720 n         1 MOL     -0.750089
     94 C29         0.4230   -2.8560    2.1160 c3        1 MOL      0.158480
     95 C30         1.4710   -3.6110    1.2800 c         1 MOL      0.459384
     96 O16         1.7770   -4.7960    1.5030 o         1 MOL     -0.543321
     97 C31         0.9710   -2.6740    3.5470 c3        1 MOL      0.161463
     98 C32        -0.1690   -2.0470    4.4050 c3        1 MOL      0.151332
     99 C33         2.2340   -1.7870    3.6120 c3        1 MOL     -0.211763
    100 C34         0.1550   -1.7400    5.8510 c3        1 MOL     -0.242867
    101 H42        -0.8820   -4.3790    2.6580 hn        1 MOL      0.318929
    102 H43         0.2210   -1.9130    1.6150 h1        1 MOL      0.065017
    103 H44         1.2510   -3.6740    3.9000 hc        1 MOL     -0.024739
    104 H45        -1.0210   -2.7250    4.3750 hc        1 MOL     -0.015010
    105 H46        -0.3900   -1.0980    3.9140 hc        1 MOL     -0.015010
    106 H47         2.0490   -0.7620    3.3140 hc        1 MOL      0.027566
    107 H48         2.5840   -1.7510    4.6430 hc        1 MOL      0.027566
    108 H49         3.0370   -2.1270    2.9710 hc        1 MOL      0.027566
    109 H50         0.9200   -0.9830    6.0560 hc        1 MOL      0.054099
    110 H51        -0.7650   -1.4020    6.3150 hc        1 MOL      0.054099
    111 H52         0.3230   -2.6950    6.3640 hc        1 MOL      0.054099
    112 N10         2.1540   -2.9010    0.3420 n         1 MOL     -0.245314
    113 C35         3.3020   -3.3960   -0.4830 c3        1 MOL      0.042161
    114 C36         4.5550   -2.7830    0.1650 c         1 MOL      0.416947
    115 O17         4.4590   -1.9580    1.0470 o         1 MOL     -0.321418
    116 C37         3.2460   -3.1150   -2.0110 c3        1 MOL      0.231801
    117 C38         2.2480   -4.0030   -2.7410 c3        1 MOL     -0.324446
    118 O18         2.7510   -1.7360   -2.2190 oh        1 MOL     -0.603179
    119 H53         1.9320   -1.9340    0.1980 hn        1 MOL      0.108944
    120 H54         3.4200   -4.4580   -0.2550 h1        1 MOL      0.051230
    121 H55         4.2370   -3.3240   -2.4240 h1        1 MOL      0.026849
    122 H56         1.8340   -1.7620   -1.9220 ho        1 MOL      0.457674
    123 H57         2.4150   -5.0710   -2.5800 hc        1 MOL      0.090153
    124 H58         1.2630   -3.6660   -2.4390 hc        1 MOL      0.090153
    125 H59         2.3250   -3.8050   -3.8120 hc        1 MOL      0.090153
    126 N11         5.7540   -3.2740   -0.2370 n         1 MOL     -0.320687
    127 C39         7.0660   -2.8770    0.3750 c3        1 MOL     -0.349217
    128 C40         7.4150   -1.4140    0.2330 c         1 MOL      0.581379
    129 O19         8.0420   -0.9580    1.1320 o         1 MOL     -0.502384
    130 C41         8.1940   -3.7440   -0.2050 c3        1 MOL      0.330641
    131 C42         8.2450   -5.0440    0.5400 c3        1 MOL     -0.287993
    132 O20         8.0650   -3.9310   -1.5940 oh        1 MOL     -0.637113
    133 H60         5.6960   -4.0540   -0.8700 hn        1 MOL      0.279088
    134 H61         7.0200   -3.1950    1.4100 h1        1 MOL      0.182550
    135 H62         9.1840   -3.2960   -0.0810 h1        1 MOL      0.036776
    136 H63         8.8430   -4.4570   -1.7890 ho        1 MOL      0.410936
    137 H64         7.4530   -5.7140    0.2050 hc        1 MOL      0.085343
    138 H65         9.1620   -5.5440    0.2260 hc        1 MOL      0.085343
    139 H66         8.3550   -4.9830    1.6260 hc        1 MOL      0.085343
    140 N12         7.1150   -0.7020   -0.8630 n         1 MOL     -0.303943
    141 C43         7.3700    0.6650   -1.0480 c3        1 MOL     -0.270706
    142 C44         6.4660    1.5950   -0.2750 c         1 MOL      0.505528
    143 O21         6.8860    2.5970    0.1820 o         1 MOL     -0.481708
    144 C45         7.1340    0.9680   -2.5730 c3        1 MOL     -0.090849
    145 C46         7.5270    2.3850   -2.9510 c3        1 MOL      0.097421
    146 C47         7.3020    2.5410   -4.4450 c3        1 MOL     -0.124857
    147 C48         8.1370    1.5450   -5.2940 c3        1 MOL     -0.065072
    148 N13         9.5410    1.5220   -5.0310 n4        1 MOL     -0.340696
    149 H67         6.5510   -1.0670   -1.6270 hn        1 MOL      0.241149
    150 H68         8.3420    0.9090   -0.6360 h1        1 MOL      0.160440
    151 H69         6.1000    0.7540   -2.8410 hc        1 MOL      0.061518
    152 H70         7.7170    0.2620   -3.1530 hc        1 MOL      0.061518
    153 H71         8.5840    2.5350   -2.7220 hc        1 MOL      0.011052
    154 H72         6.9170    3.1260   -2.4320 hc        1 MOL      0.011052
    155 H73         7.5250    3.5920   -4.6630 hc        1 MOL      0.083196
    156 H74         6.2610    2.3170   -4.6480 hc        1 MOL      0.083196
    157 H75         7.9160    1.8080   -6.3280 hx        1 MOL      0.108160
    158 H76         7.6030    0.6180   -5.0890 hx        1 MOL      0.108160
    159 H77         9.8090    2.4980   -4.9880 hn        1 MOL      0.296000
    160 H78         9.6570    1.1270   -4.1110 hn        1 MOL      0.296000
    161 H79        10.0510    0.8760   -5.6100 hn        1 MOL      0.296000
    162 N14         5.1720    1.1580   -0.0970 n         1 MOL     -0.391894
    163 C49         4.1580    1.8240    0.8290 c3        1 MOL     -0.028255
    164 C50         4.7660    1.8090    2.2790 c         1 MOL      0.326993
    165 O22         4.7670    2.9090    2.9910 o         1 MOL     -0.557982
    166 C51         2.7570    1.1050    0.7880 c3        1 MOL      0.138440
    167 C52         2.2320    1.2630   -0.6440 c3        1 MOL     -0.169945
    168 C53         0.8430    0.6680   -0.5700 c         1 MOL      0.862625
    169 O23        -0.1470    1.4130   -0.6600 o         1 MOL     -0.804991
    170 O24         0.6330   -0.5650   -0.6060 o         1 MOL     -0.804991
    171 H80         4.9060    0.2820   -0.5320 hn        1 MOL      0.260542
    172 H81         3.9430    2.8680    0.6430 h1        1 MOL      0.117409
    173 H82         2.1270    1.5520    1.5510 hc        1 MOL      0.004523
    174 H83         2.7250    0.0320    0.9940 hc        1 MOL      0.004523
    175 H84         2.7350    0.5590   -1.3050 hc        1 MOL      0.025852
    176 H85         2.2420    2.2320   -1.1430 hc        1 MOL      0.025852
    177 N15         5.4070    0.7160    2.7520 n         1 MOL      0.048889
    178 C54         6.1080    0.7690    4.0580 c3        1 MOL     -0.312933
    179 H86         6.5330    1.7620    4.2010 h1        1 MOL      0.118176
    180 H87         5.4000    0.5580    4.8590 h1        1 MOL      0.118176
    181 H88         6.9060    0.0280    4.0730 h1        1 MOL      0.118176
    182 H89         5.2040   -0.1340    2.2480 hn        1 MOL      0.093195
    183 Ca1        -1.8680   -0.5910   -1.3070 Ca        1 MOL      1.753332
    184 O25        -0.4950   -0.1680   -3.4830 oh        1 MOL     -0.862452
    185 H90        -1.1820    0.3790   -3.8800 ho        1 MOL      0.399311
    186 H91         0.3240    0.2230   -3.7800 ho        1 MOL      0.399311
    187 O26        -1.3160   -3.0570   -2.0430 oh        1 MOL     -0.862452
    188 H92        -1.1450   -3.1920   -2.9730 ho        1 MOL      0.399311
    189 H93        -2.0290   -3.6600   -1.8390 ho        1 MOL      0.399311
@<TRIPOS>BOND
     1    1    2 1   
     2    1    4 1   
     3    1    5 1   
     4    1    6 1   
     5    2    3 2   
     6    2    7 1   
     7    7    8 1   
     8    7   15 1   
     9    8    9 1   
    10    8   11 1   
    11    8   16 1   
    12    9   10 2   
    13    9   19 1   
    14   11   12 1   
    15   11   17 1   
    16   11   18 1   
    17   12   13 1   
    18   12   14 1   
    19   19   20 1   
    20   19   28 1   
    21   20   21 1   
    22   20   23 1   
    23   20   29 1   
    24   21   22 2   
    25   21   41 1   
    26   23   24 1   
    27   23   30 1   
    28   23   31 1   
    29   24   25 1   
    30   24   32 1   
    31   24   33 1   
    32   25   26 1   
    33   25   34 1   
    34   25   35 1   
    35   26   27 1   
    36   26   36 1   
    37   26   37 1   
    38   27   38 1   
    39   27   39 1   
    40   27   40 1   
    41   41   42 1   
    42   41   49 1   
    43   42   43 1   
    44   42   45 1   
    45   42   50 1   
    46   43   44 2   
    47   43   53 1   
    48   45   46 1   
    49   45   51 1   
    50   45   52 1   
    51   46   47 1   
    52   46   48 1   
    53   53   54 1   
    54   53   57 1   
    55   54   55 1   
    56   54   58 1   
    57   54   59 1   
    58   55   56 2   
    59   55   60 1   
    60   60   61 1   
    61   60   68 1   
    62   61   62 1   
    63   61   64 1   
    64   61   69 1   
    65   62   63 2   
    66   62   72 1   
    67   64   65 1   
    68   64   70 1   
    69   64   71 1   
    70   65   66 1   
    71   65   67 1   
    72   72   73 1   
    73   72   76 1   
    74   73   74 1   
    75   73   77 1   
    76   73   78 1   
    77   74   75 2   
    78   74   79 1   
    79   79   80 1   
    80   79   86 1   
    81   80   81 1   
    82   80   83 1   
    83   80   87 1   
    84   81   82 2   
    85   81   93 1   
    86   83   84 1   
    87   83   85 1   
    88   83   88 1   
    89   84   90 1   
    90   84   91 1   
    91   84   92 1   
    92   85   89 1   
    93   93   94 1   
    94   93  101 1   
    95   94   95 1   
    96   94   97 1   
    97   94  102 1   
    98   95   96 2   
    99   95  112 1   
   100   97   98 1   
   101   97   99 1   
   102   97  103 1   
   103   98  100 1   
   104   98  104 1   
   105   98  105 1   
   106   99  106 1   
   107   99  107 1   
   108   99  108 1   
   109  100  109 1   
   110  100  110 1   
   111  100  111 1   
   112  112  113 1   
   113  112  119 1   
   114  113  114 1   
   115  113  116 1   
   116  113  120 1   
   117  114  115 2   
   118  114  126 1   
   119  116  117 1   
   120  116  118 1   
   121  116  121 1   
   122  117  123 1   
   123  117  124 1   
   124  117  125 1   
   125  118  122 1   
   126  126  127 1   
   127  126  133 1   
   128  127  128 1   
   129  127  130 1   
   130  127  134 1   
   131  128  129 2   
   132  128  140 1   
   133  130  131 1   
   134  130  132 1   
   135  130  135 1   
   136  131  137 1   
   137  131  138 1   
   138  131  139 1   
   139  132  136 1   
   140  140  141 1   
   141  140  149 1   
   142  141  142 1   
   143  141  144 1   
   144  141  150 1   
   145  142  143 2   
   146  142  162 1   
   147  144  145 1   
   148  144  151 1   
   149  144  152 1   
   150  145  146 1   
   151  145  153 1   
   152  145  154 1   
   153  146  147 1   
   154  146  155 1   
   155  146  156 1   
   156  147  148 1   
   157  147  157 1   
   158  147  158 1   
   159  148  159 1   
   160  148  160 1   
   161  148  161 1   
   162  162  163 1   
   163  162  171 1   
   164  163  164 1   
   165  163  166 1   
   166  163  172 1   
   167  164  165 2   
   168  164  177 1   
   169  166  167 1   
   170  166  173 1   
   171  166  174 1   
   172  167  168 1   
   173  167  175 1   
   174  167  176 1   
   175  168  169 1   
   176  168  170 1   
   177  177  178 1   
   178  177  182 1   
   179  178  179 1   
   180  178  180 1   
   181  178  181 1   
   182  184  185 1   
   183  184  186 1   
   184  187  188 1   
   185  187  189 1   
@<TRIPOS>SUBSTRUCTURE
     1 MOL         1 TEMP              0 ****  ****    0 ROOT
