@<TRIPOS>MOLECULE
MOL
  186   183     1     0     0
SMALL
resp


@<TRIPOS>ATOM
      1 C1         -1.1780    1.8870    6.3950 c3        1 MOL     -0.311292
      2 C2         -1.3610    1.8990    4.8600 c         1 MOL      0.768743
      3 O1         -0.4190    2.1290    4.1090 o         1 MOL     -0.628799
      4 H1         -1.7450    2.7080    6.8340 hc        1 MOL      0.068851
      5 H2         -1.5390    0.9410    6.7980 hc        1 MOL      0.068851
      6 H3         -0.1210    2.0050    6.6360 hc        1 MOL      0.068851
      7 N1         -2.5250    1.3900    4.4370 n         1 MOL     -0.711969
      8 C3         -2.9720    1.2970    3.0170 c3        1 MOL      0.352832
      9 C4         -3.3630    2.7310    2.5310 c         1 MOL      0.488265
     10 O2         -4.4260    3.1770    3.0040 o         1 MOL     -0.571878
     11 C5         -4.1770    0.3690    3.0150 c3        1 MOL     -0.301154
     12 C6         -4.6970    0.2400    1.6580 c         1 MOL      0.671428
     13 O3         -5.8140   -0.3220    1.6250 o         1 MOL     -0.642977
     14 O4         -4.0370    0.6060    0.6420 o         1 MOL     -0.642977
     15 H4         -3.1340    0.9420    5.1040 hn        1 MOL      0.335570
     16 H5         -2.1590    0.8700    2.4240 h1        1 MOL     -0.051458
     17 H6         -4.9030    0.6450    3.7800 hc        1 MOL      0.076783
     18 H7         -3.7580   -0.5860    3.3500 hc        1 MOL      0.076783
     19 N2         -2.5590    3.3470    1.7170 n         1 MOL     -0.313417
     20 C7         -2.7540    4.7280    1.3680 c3        1 MOL     -0.037561
     21 C8         -3.5580    4.8000    0.0470 c         1 MOL      0.368160
     22 O5         -4.4460    5.6520   -0.0400 o         1 MOL     -0.531679
     23 C9         -1.4350    5.4990    1.2900 c3        1 MOL      0.161814
     24 C10        -1.8250    6.9350    1.5790 c3        1 MOL      0.187106
     25 C11        -0.7420    5.4260   -0.0480 c3        1 MOL     -0.263927
     26 C12        -0.7060    8.0310    1.4670 c3        1 MOL     -0.328274
     27 H8         -1.7630    2.8880    1.2950 hn        1 MOL      0.209297
     28 H9         -3.3150    5.1690    2.1980 h1        1 MOL      0.074880
     29 H10        -0.7770    5.2450    2.1320 hc        1 MOL      0.012643
     30 H11        -2.0930    6.9450    2.6370 hc        1 MOL     -0.045454
     31 H12        -2.7830    7.1650    1.1240 hc        1 MOL     -0.045454
     32 H13        -1.3240    5.9350   -0.8240 hc        1 MOL      0.060130
     33 H14         0.2970    5.7600   -0.0730 hc        1 MOL      0.060130
     34 H15        -0.7070    4.4070   -0.4370 hc        1 MOL      0.060130
     35 H16        -0.8460    8.4370    0.4640 hc        1 MOL      0.067936
     36 H17        -0.7280    8.8880    2.1440 hc        1 MOL      0.067936
     37 H18         0.2960    7.5970    1.5760 hc        1 MOL      0.067936
     38 N3         -3.3510    3.9230   -0.9850 n         1 MOL     -0.128561
     39 C13        -4.1070    4.0480   -2.2320 c3        1 MOL     -0.073995
     40 C14        -5.4880    3.3480   -2.0330 c         1 MOL      0.391167
     41 O6         -6.4340    3.4930   -2.8350 o         1 MOL     -0.566554
     42 C15        -3.2580    3.5400   -3.4730 c3        1 MOL     -0.106814
     43 C16        -2.5390    2.2620   -3.2940 c         1 MOL      0.654210
     44 O7         -3.1770    1.3400   -2.6780 o         1 MOL     -0.667505
     45 O8         -1.4230    2.0130   -3.8830 o         1 MOL     -0.667505
     46 H19        -2.7580    3.1390   -0.7880 hn        1 MOL      0.134855
     47 H20        -4.3300    5.0650   -2.5410 h1        1 MOL      0.103330
     48 H21        -2.4980    4.2880   -3.6960 hc        1 MOL      0.043574
     49 H22        -3.9280    3.5410   -4.3280 hc        1 MOL      0.043574
     50 N4         -5.6410    2.6410   -0.9200 n         1 MOL     -0.020762
     51 C17        -6.8880    2.0830   -0.5330 c3        1 MOL     -0.430614
     52 C18        -7.3580    0.7190   -1.1240 c         1 MOL      0.692624
     53 O9         -8.5210    0.4130   -0.9130 o         1 MOL     -0.628869
     54 H23        -4.7840    2.5290   -0.4000 hn        1 MOL      0.201243
     55 H24        -7.6500    2.8040   -0.8130 h1        1 MOL      0.149599
     56 H25        -6.9000    1.9870    0.5540 h1        1 MOL      0.149599
     57 N5         -6.5620   -0.0580   -1.8370 n         1 MOL     -0.389764
     58 C19        -6.9470   -1.3210   -2.4980 c3        1 MOL      0.113030
     59 C20        -7.1800   -2.4180   -1.4540 c         1 MOL      0.374007
     60 O10        -7.4540   -3.6000   -1.7430 o         1 MOL     -0.584398
     61 C21        -5.7970   -1.7750   -3.4550 c3        1 MOL     -0.294582
     62 C22        -4.3610   -1.8520   -2.7730 c         1 MOL      0.876631
     63 O11        -3.2850   -2.0330   -3.3940 o         1 MOL     -0.800314
     64 O12        -4.2980   -1.7800   -1.6100 o         1 MOL     -0.800314
     65 H26        -5.5760    0.1730   -1.7580 hn        1 MOL      0.193255
     66 H27        -7.9250   -1.1780   -2.9670 h1        1 MOL      0.074453
     67 H28        -5.7060   -1.1110   -4.3140 hc        1 MOL      0.069986
     68 H29        -6.1510   -2.7380   -3.8480 hc        1 MOL      0.069986
     69 N6         -6.8960   -2.1840   -0.1580 n         1 MOL     -0.079356
     70 C23        -7.0760   -3.0750    0.9990 c3        1 MOL     -0.251301
     71 C24        -5.8280   -3.8000    1.5020 c         1 MOL      0.613227
     72 O13        -5.8840   -4.7320    2.2570 o         1 MOL     -0.608280
     73 H30        -6.5810   -1.2390    0.0230 hn        1 MOL      0.178025
     74 H31        -7.8830   -3.7830    0.8040 h1        1 MOL      0.107573
     75 H32        -7.4600   -2.4330    1.8000 h1        1 MOL      0.107573
     76 N7         -4.6450   -3.4280    1.0490 n         1 MOL     -0.501556
     77 C25        -3.2750   -4.0170    1.2880 c3        1 MOL      0.294777
     78 C26        -2.1810   -2.9290    1.4460 c         1 MOL      0.394483
     79 O14        -2.4900   -1.7520    1.1940 o         1 MOL     -0.571291
     80 C27        -2.9490   -5.0050    0.1760 c3        1 MOL      0.029769
     81 C28        -3.9860   -6.1330   -0.1290 c3        1 MOL     -0.350857
     82 C29        -3.5420   -7.2610   -1.0310 c         1 MOL      0.742745
     83 N8         -3.1280   -6.9590   -2.2710 n         1 MOL     -0.883456
     84 O15        -3.4620   -8.3910   -0.6130 o         1 MOL     -0.583551
     85 H33        -4.6990   -2.7740    0.2820 hn        1 MOL      0.394741
     86 H34        -3.2680   -4.6340    2.1920 h1        1 MOL      0.001545
     87 H35        -1.9630   -5.4250    0.3890 hc        1 MOL      0.010129
     88 H36        -2.8050   -4.3810   -0.7100 hc        1 MOL      0.010129
     89 H37        -4.8430   -5.6350   -0.5900 hc        1 MOL      0.106584
     90 H38        -4.2940   -6.6330    0.7850 hc        1 MOL      0.106584
     91 H39        -3.0810   -5.9810   -2.5060 hn        1 MOL      0.381250
     92 H40        -2.9780   -7.6430   -2.9980 hn        1 MOL      0.381250
     93 N9         -0.9590   -3.3160    1.7990 n         1 MOL     -0.450990
     94 C30         0.2840   -2.4600    1.9910 c3        1 MOL      0.054411
     95 C31         1.3170   -3.1290    1.0370 c         1 MOL      0.401915
     96 O16         1.5070   -4.3380    1.0720 o         1 MOL     -0.559103
     97 C32         0.7370   -2.4720    3.4930 c3        1 MOL      0.224478
     98 C33         2.0310   -1.6830    3.7390 c3        1 MOL     -0.307765
     99 C34        -0.3780   -1.8460    4.3340 c3        1 MOL     -0.307765
    100 H41        -0.8930   -4.2490    2.1890 hn        1 MOL      0.260218
    101 H42         0.0530   -1.4110    1.7990 h1        1 MOL      0.168803
    102 H43         1.0110   -3.4670    3.8570 hc        1 MOL     -0.008098
    103 H44         1.9280   -0.6400    3.4510 hc        1 MOL      0.070018
    104 H45         2.2510   -1.8920    4.7810 hc        1 MOL      0.070018
    105 H46         2.8260   -2.1300    3.1330 hc        1 MOL      0.070018
    106 H47        -0.4590   -0.7750    4.1440 hc        1 MOL      0.070018
    107 H48        -1.3600   -2.2540    4.1390 hc        1 MOL      0.070018
    108 H49        -0.2260   -1.9690    5.4120 hc        1 MOL      0.070018
    109 N10         1.9030   -2.3020    0.1670 n         1 MOL      0.009572
    110 C35         2.9670   -2.7370   -0.6550 c3        1 MOL      0.109893
    111 C36         4.3690   -2.1660   -0.1720 c         1 MOL      0.201248
    112 O17         4.4350   -1.4260    0.7720 o         1 MOL     -0.183529
    113 C37         2.6440   -2.1710   -2.1110 c3        1 MOL     -0.430633
    114 C38         3.0720   -0.7520   -2.4000 c         1 MOL      0.588989
    115 N11         2.4630    0.1840   -1.8070 n         1 MOL     -0.512704
    116 O18         4.0620   -0.4770   -3.0950 o         1 MOL     -0.605857
    117 H50         1.6570   -1.3330    0.2800 hn        1 MOL     -0.125579
    118 H51         2.9160   -3.8260   -0.7220 h1        1 MOL      0.070195
    119 H52         1.5920   -2.2480   -2.3640 hc        1 MOL      0.133707
    120 H53         3.2410   -2.8330   -2.7360 hc        1 MOL      0.133707
    121 H54         1.6470   -0.1080   -1.2920 hn        1 MOL      0.328492
    122 H55         2.5690    1.1300   -2.1480 hn        1 MOL      0.328492
    123 N12         5.4760   -2.4590   -0.8280 n         1 MOL     -0.430186
    124 C39         6.7970   -1.9440   -0.4620 c3        1 MOL      0.192455
    125 C40         7.0090   -0.4350   -0.4510 c         1 MOL      0.640018
    126 O19         7.7650    0.0380    0.3660 o         1 MOL     -0.551110
    127 C41         7.8550   -2.6760   -1.2970 c3        1 MOL     -0.300967
    128 C42         9.2490   -2.3220   -0.8440 ca        1 MOL      0.145829
    129 C43         9.7140   -3.0920    0.1900 ca        1 MOL     -0.220563
    130 C44        10.1020   -1.4720   -1.5580 ca        1 MOL     -0.220563
    131 C45        11.0160   -2.9870    0.6400 ca        1 MOL     -0.158589
    132 C46        11.4090   -1.4200   -1.1270 ca        1 MOL     -0.158589
    133 C47        11.9110   -2.1330   -0.0320 ca        1 MOL      0.257257
    134 O20        13.1870   -1.9550    0.4610 oh        1 MOL     -0.540934
    135 H56         5.4860   -2.8840   -1.7440 hn        1 MOL      0.288174
    136 H57         6.9160   -2.1340    0.6030 h1        1 MOL      0.030279
    137 H58         7.6840   -2.3680   -2.3310 hc        1 MOL      0.087734
    138 H59         7.6920   -3.7470   -1.1520 hc        1 MOL      0.087734
    139 H60         9.0280   -3.7210    0.7330 ha        1 MOL      0.150901
    140 H61         9.7200   -1.0060   -2.4580 ha        1 MOL      0.150901
    141 H62        11.3290   -3.5770    1.4880 ha        1 MOL      0.109446
    142 H63        12.0850   -0.8090   -1.7060 ha        1 MOL      0.109446
    143 H64        13.5320   -1.0800    0.2990 ho        1 MOL      0.392374
    144 N13         6.3150    0.3100   -1.3070 n         1 MOL     -0.502341
    145 C48         6.3280    1.7890   -1.1150 c3        1 MOL      0.024091
    146 C49         5.5250    2.2520    0.1360 c         1 MOL      0.203265
    147 O21         5.9700    3.1790    0.8240 o         1 MOL     -0.472122
    148 C50         5.5970    2.2060   -2.4130 c3        1 MOL     -0.052752
    149 C51         5.6600    3.7150   -2.5460 c3        1 MOL     -0.275263
    150 C52         5.3520    4.2850   -3.9050 c         1 MOL      0.764786
    151 O22         4.1820    4.3910   -4.2790 o         1 MOL     -0.764105
    152 O23         6.3040    4.7480   -4.5460 o         1 MOL     -0.764105
    153 H65         5.7890   -0.1110   -2.0600 hn        1 MOL      0.265576
    154 H66         7.3190    2.2320   -1.0600 h1        1 MOL      0.121612
    155 H67         4.5330    1.9620   -2.2870 hc        1 MOL      0.072963
    156 H68         5.8890    1.7690   -3.3670 hc        1 MOL      0.072963
    157 H69         6.6730    4.0450   -2.3140 hc        1 MOL      0.044738
    158 H70         4.9830    4.1590   -1.8170 hc        1 MOL      0.044738
    159 N14         4.3920    1.6410    0.4480 n         1 MOL      0.127037
    160 C53         3.6640    2.0330    1.6450 c3        1 MOL     -0.276614
    161 C54         4.4350    1.6120    2.9220 c         1 MOL      0.492156
    162 O24         4.4000    2.3110    3.9520 o         1 MOL     -0.552468
    163 C55         2.2030    1.4440    1.5140 c3        1 MOL      0.040136
    164 C56         1.2220    2.1820    0.5620 c3        1 MOL     -0.121859
    165 C57         0.0240    1.3100    0.0450 c         1 MOL      0.600743
    166 O25        -1.1100    1.8160   -0.1090 o         1 MOL     -0.640360
    167 O26         0.2130    0.0590   -0.2210 o         1 MOL     -0.640360
    168 H71         3.9710    1.0320   -0.2370 hn        1 MOL      0.063728
    169 H72         3.5960    3.1180    1.7370 h1        1 MOL      0.132647
    170 H73         1.7060    1.5660    2.4750 hc        1 MOL      0.073552
    171 H74         2.1970    0.3870    1.2210 hc        1 MOL      0.073552
    172 H75         1.7230    2.5860   -0.3280 hc        1 MOL      0.052681
    173 H76         0.8300    2.9890    1.1730 hc        1 MOL      0.052681
    174 N15         5.1060    0.4390    2.7970 n         1 MOL     -0.019347
    175 C58         5.8600   -0.1800    3.9020 c3        1 MOL     -0.277987
    176 H77         5.4330    0.1360    4.8530 h1        1 MOL      0.089778
    177 H78         5.8010   -1.2640    3.8200 h1        1 MOL      0.089778
    178 H79         6.9030    0.1330    3.8510 h1        1 MOL      0.089778
    179 H80         4.9820   -0.1070    1.9490 hn        1 MOL     -0.008972
    180 Ca1        -2.2400   -0.3330   -0.9350 Ca        1 MOL      1.685891
    181 O27        -1.2950   -2.7340   -1.5830 oh        1 MOL     -0.794573
    182 H81        -1.7730   -2.7250   -2.4070 ho        1 MOL      0.380898
    183 H82        -0.8550   -3.5800   -1.5650 ho        1 MOL      0.380898
    184 O28        -0.4880   -0.3380   -3.0910 oh        1 MOL     -0.794573
    185 H83        -0.9640    0.3560   -3.5340 ho        1 MOL      0.380898
    186 H84         0.0920   -0.6990   -3.7600 ho        1 MOL      0.380898
@<TRIPOS>BOND
     1    1    2 1   
     2    1    4 1   
     3    1    5 1   
     4    1    6 1   
     5    2    3 2   
     6    2    7 1   
     7    7    8 1   
     8    7   15 1   
     9    8    9 1   
    10    8   11 1   
    11    8   16 1   
    12    9   10 2   
    13    9   19 1   
    14   11   12 1   
    15   11   17 1   
    16   11   18 1   
    17   12   13 1   
    18   12   14 1   
    19   19   20 1   
    20   19   27 1   
    21   20   21 1   
    22   20   23 1   
    23   20   28 1   
    24   21   22 2   
    25   21   38 1   
    26   23   24 1   
    27   23   25 1   
    28   23   29 1   
    29   24   26 1   
    30   24   30 1   
    31   24   31 1   
    32   25   32 1   
    33   25   33 1   
    34   25   34 1   
    35   26   35 1   
    36   26   36 1   
    37   26   37 1   
    38   38   39 1   
    39   38   46 1   
    40   39   40 1   
    41   39   42 1   
    42   39   47 1   
    43   40   41 2   
    44   40   50 1   
    45   42   43 1   
    46   42   48 1   
    47   42   49 1   
    48   43   44 1   
    49   43   45 1   
    50   50   51 1   
    51   50   54 1   
    52   51   52 1   
    53   51   55 1   
    54   51   56 1   
    55   52   53 2   
    56   52   57 1   
    57   57   58 1   
    58   57   65 1   
    59   58   59 1   
    60   58   61 1   
    61   58   66 1   
    62   59   60 2   
    63   59   69 1   
    64   61   62 1   
    65   61   67 1   
    66   61   68 1   
    67   62   63 1   
    68   62   64 1   
    69   69   70 1   
    70   69   73 1   
    71   70   71 1   
    72   70   74 1   
    73   70   75 1   
    74   71   72 2   
    75   71   76 1   
    76   76   77 1   
    77   76   85 1   
    78   77   78 1   
    79   77   80 1   
    80   77   86 1   
    81   78   79 2   
    82   78   93 1   
    83   80   81 1   
    84   80   87 1   
    85   80   88 1   
    86   81   82 1   
    87   81   89 1   
    88   81   90 1   
    89   82   83 1   
    90   82   84 2   
    91   83   91 1   
    92   83   92 1   
    93   93   94 1   
    94   93  100 1   
    95   94   95 1   
    96   94   97 1   
    97   94  101 1   
    98   95   96 2   
    99   95  109 1   
   100   97   98 1   
   101   97   99 1   
   102   97  102 1   
   103   98  103 1   
   104   98  104 1   
   105   98  105 1   
   106   99  106 1   
   107   99  107 1   
   108   99  108 1   
   109  109  110 1   
   110  109  117 1   
   111  110  111 1   
   112  110  113 1   
   113  110  118 1   
   114  111  112 2   
   115  111  123 1   
   116  113  114 1   
   117  113  119 1   
   118  113  120 1   
   119  114  115 1   
   120  114  116 2   
   121  115  121 1   
   122  115  122 1   
   123  123  124 1   
   124  123  135 1   
   125  124  125 1   
   126  124  127 1   
   127  124  136 1   
   128  125  126 2   
   129  125  144 1   
   130  127  128 1   
   131  127  137 1   
   132  127  138 1   
   133  128  129 ar  
   134  128  130 ar  
   135  129  131 ar  
   136  129  139 1   
   137  130  132 ar  
   138  130  140 1   
   139  131  133 ar  
   140  131  141 1   
   141  132  133 ar  
   142  132  142 1   
   143  133  134 1   
   144  134  143 1   
   145  144  145 1   
   146  144  153 1   
   147  145  146 1   
   148  145  148 1   
   149  145  154 1   
   150  146  147 2   
   151  146  159 1   
   152  148  149 1   
   153  148  155 1   
   154  148  156 1   
   155  149  150 1   
   156  149  157 1   
   157  149  158 1   
   158  150  151 1   
   159  150  152 1   
   160  159  160 1   
   161  159  168 1   
   162  160  161 1   
   163  160  163 1   
   164  160  169 1   
   165  161  162 2   
   166  161  174 1   
   167  163  164 1   
   168  163  170 1   
   169  163  171 1   
   170  164  165 1   
   171  164  172 1   
   172  164  173 1   
   173  165  166 1   
   174  165  167 1   
   175  174  175 1   
   176  174  179 1   
   177  175  176 1   
   178  175  177 1   
   179  175  178 1   
   180  181  182 1   
   181  181  183 1   
   182  184  185 1   
   183  184  186 1   
@<TRIPOS>SUBSTRUCTURE
     1 MOL         1 TEMP              0 ****  ****    0 ROOT
