@<TRIPOS>MOLECULE
MOL
  189   185     1     0     0
SMALL
resp


@<TRIPOS>ATOM
      1 C1          0.7730   -4.0240    6.2090 c3        1 MOL     -0.398248
      2 C2          1.0910   -3.4530    4.8310 c         1 MOL      0.743469
      3 O1          0.7560   -2.3140    4.5290 o         1 MOL     -0.591643
      4 H1          1.7000   -4.1720    6.7630 hc        1 MOL      0.101937
      5 H2          0.1330   -3.3280    6.7520 hc        1 MOL      0.101937
      6 H3          0.2610   -4.9790    6.0980 hc        1 MOL      0.101937
      7 N1          1.7630   -4.3050    4.0020 n         1 MOL     -0.675574
      8 C3          2.1360   -3.9720    2.6230 c3        1 MOL      0.520431
      9 C4          1.7160   -5.0900    1.5360 c         1 MOL      0.343896
     10 O2          1.6110   -6.2900    1.7720 o         1 MOL     -0.568585
     11 C5          3.6540   -3.7650    2.6340 c3        1 MOL     -0.270132
     12 C6          4.3090   -3.3200    1.3210 c         1 MOL      0.718652
     13 O3          3.7070   -2.4870    0.5900 o         1 MOL     -0.655330
     14 O4          5.3970   -3.8970    1.0300 o         1 MOL     -0.655330
     15 H4          1.9100   -5.2080    4.4340 hn        1 MOL      0.319851
     16 H5          1.8140   -2.9930    2.2780 h1        1 MOL     -0.112872
     17 H6          4.1030   -4.6560    3.0660 hc        1 MOL      0.019743
     18 H7          3.7300   -2.9840    3.3820 hc        1 MOL      0.019743
     19 N2          1.5210   -4.6840    0.2580 n         1 MOL      0.195116
     20 C7          1.1370   -5.5600   -0.8440 c3        1 MOL     -0.220137
     21 C8          2.0950   -5.2330   -2.0470 c         1 MOL      0.480592
     22 O5          2.3080   -6.0250   -2.9890 o         1 MOL     -0.578294
     23 C9         -0.3970   -5.4300   -1.1920 c3        1 MOL      0.219618
     24 C10        -0.7440   -4.1450   -1.9970 c3        1 MOL     -0.056585
     25 C11        -1.2790   -5.5870    0.0340 c3        1 MOL     -0.171437
     26 C12        -2.2240   -3.6500   -1.8410 c3        1 MOL     -0.148863
     27 H8          1.6170   -3.7030    0.0450 hn        1 MOL     -0.341589
     28 H9          1.3020   -6.6090   -0.6380 h1        1 MOL      0.108744
     29 H10        -0.6380   -6.2410   -1.8830 hc        1 MOL     -0.030879
     30 H11        -0.4800   -4.2010   -3.0470 hc        1 MOL      0.037002
     31 H12        -0.1070   -3.3460   -1.6110 hc        1 MOL      0.037002
     32 H13        -2.3010   -5.7930   -0.2800 hc        1 MOL      0.031143
     33 H14        -1.0210   -6.5210    0.5360 hc        1 MOL      0.031143
     34 H15        -1.2510   -4.7230    0.6930 hc        1 MOL      0.031143
     35 H16        -2.4960   -3.2870   -0.8470 hc        1 MOL      0.063619
     36 H17        -2.2980   -2.6890   -2.3460 hc        1 MOL      0.063619
     37 H18        -2.9220   -4.3910   -2.2290 hc        1 MOL      0.063619
     38 N3          2.7430   -4.0750   -2.0690 n         1 MOL     -0.271709
     39 C13         3.1470   -3.5180   -3.3330 c3        1 MOL     -0.027583
     40 C14         4.6000   -3.0130   -3.2750 c         1 MOL      0.412436
     41 O6          5.2470   -2.8040   -4.2840 o         1 MOL     -0.574101
     42 C15         2.1760   -2.4390   -3.9300 c3        1 MOL     -0.127564
     43 C16         1.7110   -1.4000   -2.9420 c         1 MOL      0.636505
     44 O7          2.3930   -1.2960   -1.8750 o         1 MOL     -0.650044
     45 O8          0.8610   -0.5850   -3.3360 o         1 MOL     -0.650044
     46 H19         2.6090   -3.4640   -1.2720 hn        1 MOL      0.297833
     47 H20         3.1150   -4.3320   -4.0690 h1        1 MOL      0.110965
     48 H21         1.2910   -2.9650   -4.2910 hc        1 MOL      0.041640
     49 H22         2.6800   -1.9420   -4.7580 hc        1 MOL      0.041640
     50 N4          5.1510   -2.9250   -2.0740 n         1 MOL     -0.070479
     51 C17         6.5910   -2.7060   -1.8240 c3        1 MOL     -0.084952
     52 C18         7.0990   -1.2280   -1.9130 c         1 MOL      0.449945
     53 O9          8.3250   -1.0150   -2.0720 o         1 MOL     -0.627935
     54 H23         4.5970   -3.2520   -1.2980 hn        1 MOL      0.072901
     55 H24         7.2050   -3.3620   -2.4280 h1        1 MOL      0.070388
     56 H25         6.8260   -2.8760   -0.7710 h1        1 MOL      0.070388
     57 N5          6.2680   -0.2160   -1.8880 n         1 MOL     -0.098610
     58 C19         6.5300    1.1610   -2.3920 c3        1 MOL     -0.030349
     59 C20         6.8180    2.1730   -1.2620 c         1 MOL      0.418101
     60 O10         7.0960    3.3670   -1.5210 o         1 MOL     -0.543643
     61 C21         5.2870    1.6250   -3.1940 c3        1 MOL     -0.350383
     62 C22         4.0060    1.6560   -2.4560 c         1 MOL      0.891358
     63 O11         3.8520    1.1590   -1.2820 o         1 MOL     -0.697588
     64 O12         3.1330    2.3490   -2.9950 o         1 MOL     -0.697588
     65 H26         5.3100   -0.4720   -1.7210 hn        1 MOL      0.104479
     66 H27         7.3730    1.1790   -3.0780 h1        1 MOL      0.126185
     67 H28         5.1560    0.9810   -4.0560 hc        1 MOL      0.096921
     68 H29         5.4040    2.6590   -3.5030 hc        1 MOL      0.096921
     69 N6          6.7810    1.8240    0.0450 n         1 MOL     -0.414706
     70 C23         6.9930    2.7210    1.2820 c3        1 MOL     -0.005776
     71 C24         5.8480    3.6030    1.6610 c         1 MOL      0.326347
     72 O13         6.0200    4.4030    2.6230 o         1 MOL     -0.584679
     73 H30         6.4850    0.8760    0.2320 hn        1 MOL      0.261702
     74 H31         7.8790    3.3330    1.1300 h1        1 MOL      0.091338
     75 H32         7.4290    2.1070    2.0610 h1        1 MOL      0.091338
     76 N7          4.7060    3.4510    1.0300 n         1 MOL     -0.096844
     77 C25         3.5390    4.3430    1.1300 c3        1 MOL     -0.024151
     78 C26         2.3270    3.4860    1.4920 c         1 MOL      0.419999
     79 O14         2.4450    2.2810    1.3050 o         1 MOL     -0.498208
     80 C27         3.2980    5.0260   -0.2150 c3        1 MOL      0.164955
     81 C28         4.3580    6.1190   -0.4060 c3        1 MOL     -0.168797
     82 C29         3.7830    7.1270   -1.3520 c         1 MOL      0.647298
     83 N8          4.3410    7.3130   -2.4750 n         1 MOL     -0.773272
     84 O15         2.7870    7.7520   -1.0300 o         1 MOL     -0.605000
     85 H33         4.6060    2.7430    0.3160 hn        1 MOL      0.220527
     86 H34         3.6130    5.0140    1.9780 h1        1 MOL      0.051668
     87 H35         2.3330    5.5320   -0.0910 hc        1 MOL     -0.003820
     88 H36         3.3100    4.2550   -0.9850 hc        1 MOL     -0.003820
     89 H37         5.2620    5.6730   -0.8110 hc        1 MOL      0.048105
     90 H38         4.6120    6.7090    0.4780 hc        1 MOL      0.048105
     91 H39         5.1320    6.7800   -2.8170 hn        1 MOL      0.354023
     92 H40         3.8740    7.9140   -3.1380 hn        1 MOL      0.354023
     93 N9          1.2990    4.0350    2.0510 n         1 MOL     -0.414026
     94 C30         0.0450    3.2730    2.4210 c3        1 MOL     -0.029834
     95 C31        -0.9550    3.5530    1.3150 c         1 MOL      0.629117
     96 O16        -1.2920    4.6980    1.0050 o         1 MOL     -0.606545
     97 C32        -0.4690    3.4760    3.8770 c3        1 MOL      0.230717
     98 C33        -0.9780    4.8850    4.1750 c3        1 MOL     -0.219226
     99 C34        -1.4340    2.3910    4.3380 c3        1 MOL     -0.219226
    100 H41         1.2460    4.9830    2.4010 hn        1 MOL      0.290632
    101 H42         0.2890    2.2050    2.4190 h1        1 MOL      0.061908
    102 H43         0.3670    3.3910    4.5770 hc        1 MOL     -0.020429
    103 H44        -1.2030    4.8360    5.2380 hc        1 MOL      0.039432
    104 H45        -0.1920    5.6340    4.0140 hc        1 MOL      0.039432
    105 H46        -1.9050    5.1070    3.6560 hc        1 MOL      0.039432
    106 H47        -2.1730    2.2830    3.5430 hc        1 MOL      0.039432
    107 H48        -0.9650    1.4260    4.5050 hc        1 MOL      0.039432
    108 H49        -1.8570    2.7510    5.2770 hc        1 MOL      0.039432
    109 N10        -1.4990    2.4970    0.7240 n         1 MOL     -0.286244
    110 C35        -2.6360    2.5150   -0.1820 c3        1 MOL      0.079194
    111 C36        -3.9410    2.2810    0.5240 c         1 MOL      0.199995
    112 O17        -3.9210    1.7220    1.6080 o         1 MOL     -0.340269
    113 C37        -2.4290    1.4410   -1.3540 c3        1 MOL     -0.227060
    114 C38        -3.3990    1.3870   -2.5080 c         1 MOL      0.760128
    115 N11        -3.6240    2.4020   -3.2180 n         1 MOL     -0.805719
    116 O18        -4.0070    0.3840   -2.7190 o         1 MOL     -0.535007
    117 H50        -1.0450    1.6080    0.8360 hn        1 MOL      0.211288
    118 H51        -2.7340    3.4750   -0.6930 h1        1 MOL      0.027967
    119 H52        -2.4330    0.4720   -0.8550 hc        1 MOL      0.096592
    120 H53        -1.4360    1.6170   -1.7440 hc        1 MOL      0.096592
    121 H54        -3.1630    3.2800   -3.0240 hn        1 MOL      0.359030
    122 H55        -4.3160    2.2450   -3.9370 hn        1 MOL      0.359030
    123 N12        -5.1040    2.5780   -0.0930 n         1 MOL     -0.103672
    124 C39        -6.3400    2.3220    0.5750 c3        1 MOL     -0.027722
    125 C40        -6.7560    0.8700    0.7290 c         1 MOL      0.466888
    126 O19        -7.7350    0.7150    1.3730 o         1 MOL     -0.569427
    127 C41        -7.4690    3.0210   -0.2340 c3        1 MOL     -0.149343
    128 C42        -7.5290    2.6640   -1.6920 ca        1 MOL      0.231712
    129 C43        -8.1540    1.5120   -2.2230 ca        1 MOL     -0.371370
    130 C44        -6.8470    3.5080   -2.5810 ca        1 MOL     -0.371370
    131 C45        -8.2140    1.2030   -3.5810 ca        1 MOL     -0.119080
    132 C46        -6.8030    3.1650   -3.9980 ca        1 MOL     -0.119080
    133 C47        -7.6130    2.0730   -4.4890 ca        1 MOL      0.286546
    134 O20        -7.7430    1.9450   -5.8460 oh        1 MOL     -0.577980
    135 H56        -4.9860    3.1200   -0.9280 hn        1 MOL      0.127371
    136 H57        -6.2920    2.7750    1.5680 h1        1 MOL      0.098081
    137 H58        -7.4340    4.1050   -0.0710 hc        1 MOL      0.049878
    138 H59        -8.4410    2.8130    0.2160 hc        1 MOL      0.049878
    139 H60        -8.6900    0.8290   -1.5720 ha        1 MOL      0.182271
    140 H61        -6.3370    4.3540   -2.1450 ha        1 MOL      0.182271
    141 H62        -8.8520    0.4150   -3.9450 ha        1 MOL      0.118194
    142 H63        -6.3690    3.8500   -4.7170 ha        1 MOL      0.118194
    143 H64        -8.1960    1.1380   -6.1180 ho        1 MOL      0.436547
    144 N13        -5.9910   -0.1220    0.2540 n         1 MOL     -0.077297
    145 C48        -6.1970   -1.5440    0.5270 c3        1 MOL     -0.206572
    146 C49        -5.3000   -1.9960    1.7080 c         1 MOL      0.568982
    147 O21        -5.4080   -3.1600    2.1240 o         1 MOL     -0.542774
    148 C50        -5.9220   -2.4010   -0.7140 c3        1 MOL      0.143108
    149 C51        -7.0250   -2.2130   -1.8140 c3        1 MOL     -0.244776
    150 C52        -6.5840   -3.0500   -3.0180 c         1 MOL      0.611505
    151 O22        -5.9920   -2.5030   -3.9910 o         1 MOL     -0.708456
    152 O23        -6.6470   -4.3050   -2.9120 o         1 MOL     -0.708456
    153 H65        -5.2200    0.1060   -0.3590 hn        1 MOL      0.124742
    154 H66        -7.2270   -1.6980    0.8430 h1        1 MOL      0.103632
    155 H67        -5.7770   -3.4280   -0.3960 hc        1 MOL      0.014369
    156 H68        -5.0060   -2.0110   -1.1530 hc        1 MOL      0.014369
    157 H69        -6.8990   -1.1630   -2.0760 hc        1 MOL      0.047929
    158 H70        -8.0310   -2.5340   -1.5380 hc        1 MOL      0.047929
    159 N14        -4.3910   -1.1400    2.1740 n         1 MOL     -0.512288
    160 C53        -3.4500   -1.3510    3.3360 c3        1 MOL     -0.026860
    161 C54        -3.7980   -0.5510    4.6480 c         1 MOL      0.551024
    162 O24        -3.5480   -0.9210    5.7820 o         1 MOL     -0.571986
    163 C55        -2.0610   -0.9140    2.9670 c3        1 MOL     -0.248192
    164 C56        -1.5380   -1.7710    1.8120 c3        1 MOL      0.011798
    165 C57        -0.2800   -1.2600    1.1180 c         1 MOL      0.702731
    166 O25        -0.0530   -0.0230    0.8570 o         1 MOL     -0.670436
    167 O26         0.5710   -2.0560    0.6550 o         1 MOL     -0.670436
    168 H71        -4.1000   -0.3310    1.6430 hn        1 MOL      0.274104
    169 H72        -3.4790   -2.3920    3.6500 h1        1 MOL      0.094722
    170 H73        -1.2920   -0.9840    3.7390 hc        1 MOL      0.123389
    171 H74        -2.1470    0.1390    2.7140 hc        1 MOL      0.123389
    172 H75        -2.2520   -2.0140    1.0250 hc        1 MOL      0.047625
    173 H76        -1.3320   -2.7520    2.2200 hc        1 MOL      0.047625
    174 N15        -4.4940    0.5290    4.3970 n         1 MOL     -0.241432
    175 C58        -4.7690    1.6320    5.4190 c3        1 MOL     -0.189347
    176 H77        -3.8390    1.8970    5.9240 h1        1 MOL      0.085559
    177 H78        -5.1690    2.5090    4.9100 h1        1 MOL      0.085559
    178 H79        -5.4920    1.2760    6.1530 h1        1 MOL      0.085559
    179 H80        -4.5760    0.8370    3.4320 hn        1 MOL      0.150557
    180 Ca1         2.5190   -0.2650    0.4880 Ca        1 MOL      1.666677
    181 O27         4.8300    0.1410    1.8290 oh        1 MOL     -0.910529
    182 H81         5.5990   -0.4170    1.9880 ho        1 MOL      0.422530
    183 H82         4.4470    0.2770    2.6940 ho        1 MOL      0.422530
    184 O28         2.0900   -0.5250    3.1150 oh        1 MOL     -0.910529
    185 H83         1.6300   -1.1930    3.6250 ho        1 MOL      0.422530
    186 H84         2.7420   -0.1590    3.7180 ho        1 MOL      0.422530
    187 O29         1.2210    1.2260   -1.3670 oh        1 MOL     -0.910529
    188 H85         0.9610    0.4900   -1.9330 ho        1 MOL      0.422530
    189 H86         2.0910    1.4760   -1.6750 ho        1 MOL      0.422530
@<TRIPOS>BOND
     1    1    2 1   
     2    1    4 1   
     3    1    5 1   
     4    1    6 1   
     5    2    3 2   
     6    2    7 1   
     7    7    8 1   
     8    7   15 1   
     9    8    9 1   
    10    8   11 1   
    11    8   16 1   
    12    9   10 2   
    13    9   19 1   
    14   11   12 1   
    15   11   17 1   
    16   11   18 1   
    17   12   13 1   
    18   12   14 1   
    19   19   20 1   
    20   19   27 1   
    21   20   21 1   
    22   20   23 1   
    23   20   28 1   
    24   21   22 2   
    25   21   38 1   
    26   23   24 1   
    27   23   25 1   
    28   23   29 1   
    29   24   26 1   
    30   24   30 1   
    31   24   31 1   
    32   25   32 1   
    33   25   33 1   
    34   25   34 1   
    35   26   35 1   
    36   26   36 1   
    37   26   37 1   
    38   38   39 1   
    39   38   46 1   
    40   39   40 1   
    41   39   42 1   
    42   39   47 1   
    43   40   41 2   
    44   40   50 1   
    45   42   43 1   
    46   42   48 1   
    47   42   49 1   
    48   43   44 1   
    49   43   45 1   
    50   50   51 1   
    51   50   54 1   
    52   51   52 1   
    53   51   55 1   
    54   51   56 1   
    55   52   53 2   
    56   52   57 1   
    57   57   58 1   
    58   57   65 1   
    59   58   59 1   
    60   58   61 1   
    61   58   66 1   
    62   59   60 2   
    63   59   69 1   
    64   61   62 1   
    65   61   67 1   
    66   61   68 1   
    67   62   63 1   
    68   62   64 1   
    69   69   70 1   
    70   69   73 1   
    71   70   71 1   
    72   70   74 1   
    73   70   75 1   
    74   71   72 2   
    75   71   76 1   
    76   76   77 1   
    77   76   85 1   
    78   77   78 1   
    79   77   80 1   
    80   77   86 1   
    81   78   79 2   
    82   78   93 1   
    83   80   81 1   
    84   80   87 1   
    85   80   88 1   
    86   81   82 1   
    87   81   89 1   
    88   81   90 1   
    89   82   83 1   
    90   82   84 2   
    91   83   91 1   
    92   83   92 1   
    93   93   94 1   
    94   93  100 1   
    95   94   95 1   
    96   94   97 1   
    97   94  101 1   
    98   95   96 2   
    99   95  109 1   
   100   97   98 1   
   101   97   99 1   
   102   97  102 1   
   103   98  103 1   
   104   98  104 1   
   105   98  105 1   
   106   99  106 1   
   107   99  107 1   
   108   99  108 1   
   109  109  110 1   
   110  109  117 1   
   111  110  111 1   
   112  110  113 1   
   113  110  118 1   
   114  111  112 2   
   115  111  123 1   
   116  113  114 1   
   117  113  119 1   
   118  113  120 1   
   119  114  115 1   
   120  114  116 2   
   121  115  121 1   
   122  115  122 1   
   123  123  124 1   
   124  123  135 1   
   125  124  125 1   
   126  124  127 1   
   127  124  136 1   
   128  125  126 2   
   129  125  144 1   
   130  127  128 1   
   131  127  137 1   
   132  127  138 1   
   133  128  129 ar  
   134  128  130 ar  
   135  129  131 ar  
   136  129  139 1   
   137  130  132 ar  
   138  130  140 1   
   139  131  133 ar  
   140  131  141 1   
   141  132  133 ar  
   142  132  142 1   
   143  133  134 1   
   144  134  143 1   
   145  144  145 1   
   146  144  153 1   
   147  145  146 1   
   148  145  148 1   
   149  145  154 1   
   150  146  147 2   
   151  146  159 1   
   152  148  149 1   
   153  148  155 1   
   154  148  156 1   
   155  149  150 1   
   156  149  157 1   
   157  149  158 1   
   158  150  151 1   
   159  150  152 1   
   160  159  160 1   
   161  159  168 1   
   162  160  161 1   
   163  160  163 1   
   164  160  169 1   
   165  161  162 2   
   166  161  174 1   
   167  163  164 1   
   168  163  170 1   
   169  163  171 1   
   170  164  165 1   
   171  164  172 1   
   172  164  173 1   
   173  165  166 1   
   174  165  167 1   
   175  174  175 1   
   176  174  179 1   
   177  175  176 1   
   178  175  177 1   
   179  175  178 1   
   180  181  182 1   
   181  181  183 1   
   182  184  185 1   
   183  184  186 1   
   184  187  188 1   
   185  187  189 1   
@<TRIPOS>SUBSTRUCTURE
     1 MOL         1 TEMP              0 ****  ****    0 ROOT
