@<TRIPOS>MOLECULE
MOL
  179   176     1     0     0
SMALL
resp


@<TRIPOS>ATOM
      1 C1          0.4620    3.2410    6.3450 c3        1 MOL     -0.307653
      2 C2          0.3100    3.0090    4.7810 c         1 MOL      0.694872
      3 O1          1.1250    3.4600    3.9600 o         1 MOL     -0.586687
      4 H1         -0.2540    3.9960    6.6710 hc        1 MOL      0.077659
      5 H2          0.2670    2.3060    6.8710 hc        1 MOL      0.077659
      6 H3          1.4730    3.5800    6.5660 hc        1 MOL      0.077659
      7 N1         -0.7270    2.2760    4.3360 n         1 MOL     -0.464957
      8 C3         -1.1220    2.1620    2.9330 c3        1 MOL     -0.035769
      9 C4         -1.3920    3.5370    2.2780 c         1 MOL      0.602607
     10 O2         -2.0860    4.3530    2.9420 o         1 MOL     -0.585927
     11 C5         -2.4820    1.4100    3.0070 c3        1 MOL     -0.052987
     12 C6         -3.0170    1.0700    1.6470 c         1 MOL      0.789350
     13 O3         -4.1080    0.4810    1.5380 o         1 MOL     -0.780013
     14 O4         -2.4550    1.4140    0.6150 o         1 MOL     -0.780013
     15 H4         -1.3680    1.9460    5.0450 hn        1 MOL      0.278504
     16 H5         -0.3360    1.7380    2.3120 h1        1 MOL      0.059227
     17 H6         -3.3250    1.8600    3.5210 hc        1 MOL      0.030314
     18 H7         -2.2560    0.4720    3.5240 hc        1 MOL      0.030314
     19 N2         -0.7750    3.8600    1.1240 n         1 MOL     -0.332516
     20 C7         -0.6980    5.2220    0.5160 c3        1 MOL     -0.017335
     21 C8         -1.7340    5.5030   -0.5640 c         1 MOL      0.463792
     22 O5         -1.9410    6.6050   -0.9340 o         1 MOL     -0.556530
     23 C9          0.7290    5.4070    0.0090 c3        1 MOL      0.003011
     24 C10         1.2200    6.8730    0.0720 c3        1 MOL     -0.009428
     25 C11         2.6220    7.0640   -0.4680 c3        1 MOL      0.216536
     26 C12         2.8070    8.5170   -0.8670 c3        1 MOL     -0.027255
     27 N3          4.0900    8.7790   -1.5300 n4        1 MOL     -0.345719
     28 H8         -0.2380    3.1030    0.7310 hn        1 MOL      0.240315
     29 H9         -0.9100    5.9850    1.2650 h1        1 MOL      0.100774
     30 H10         0.8840    5.0140   -0.9980 hc        1 MOL      0.037964
     31 H11         1.4070    4.7880    0.6000 hc        1 MOL      0.037964
     32 H12         1.1950    7.2260    1.0970 hc        1 MOL      0.002229
     33 H13         0.5310    7.5290   -0.4510 hc        1 MOL      0.002229
     34 H14         2.7340    6.4210   -1.3480 hc        1 MOL     -0.042258
     35 H15         3.3460    6.6750    0.2420 hc        1 MOL     -0.042258
     36 H16         2.6840    9.0030    0.0980 hx        1 MOL      0.081362
     37 H17         1.9890    8.7180   -1.5510 hx        1 MOL      0.081362
     38 H18         4.8800    8.4940   -0.9680 hn        1 MOL      0.327161
     39 H19         4.1710    8.3590   -2.4440 hn        1 MOL      0.327161
     40 H20         4.2050    9.7670   -1.6750 hn        1 MOL      0.327161
     41 N4         -2.5210    4.5420   -0.9520 n         1 MOL     -0.213599
     42 C13        -3.6820    4.6550   -1.7690 c3        1 MOL      0.044999
     43 C14        -4.9170    3.9850   -1.1760 c         1 MOL      0.458945
     44 O6         -5.9820    4.0740   -1.7530 o         1 MOL     -0.500598
     45 C15        -3.4980    4.2410   -3.1830 c3        1 MOL     -0.253771
     46 C16        -2.6970    2.8720   -3.3070 c         1 MOL      0.816561
     47 O7         -2.0330    2.7210   -4.3740 o         1 MOL     -0.731087
     48 O8         -2.6460    2.0740   -2.3580 o         1 MOL     -0.731087
     49 H21        -2.2400    3.6570   -0.5520 hn        1 MOL      0.093724
     50 H22        -3.9530    5.7060   -1.7010 h1        1 MOL      0.097541
     51 H23        -2.8490    5.0050   -3.5940 hc        1 MOL      0.071279
     52 H24        -4.4550    4.3080   -3.7060 hc        1 MOL      0.071279
     53 N5         -4.7630    3.3250    0.0390 n         1 MOL     -0.337434
     54 C17        -5.9230    2.8160    0.7710 c3        1 MOL     -0.267700
     55 C18        -6.5280    1.6090    0.0290 c         1 MOL      0.500951
     56 O9         -7.7020    1.2980    0.2350 o         1 MOL     -0.565403
     57 H25        -3.8340    3.1690    0.3970 hn        1 MOL      0.250419
     58 H26        -6.6990    3.5820    0.8040 h1        1 MOL      0.159934
     59 H27        -5.6340    2.5780    1.7990 h1        1 MOL      0.159934
     60 N6         -5.8290    0.9270   -0.8980 n         1 MOL     -0.118911
     61 C19        -6.3170   -0.2890   -1.5320 c3        1 MOL     -0.247874
     62 C20        -6.2800   -1.5400   -0.6680 c         1 MOL      0.384916
     63 O10        -6.7550   -2.5580   -1.1170 o         1 MOL     -0.457049
     64 C21        -5.5450   -0.4240   -2.8360 c3        1 MOL      0.010574
     65 C22        -4.2450   -1.1250   -2.6360 c         1 MOL      0.544700
     66 N7         -3.9070   -2.0540   -3.4390 n         1 MOL     -0.744176
     67 O11        -3.5330   -0.9890   -1.6550 o         1 MOL     -0.650649
     68 H28        -4.8340    1.1140   -0.9380 hn        1 MOL      0.163667
     69 H29        -7.3570   -0.0550   -1.7800 h1        1 MOL      0.174322
     70 H30        -5.2810    0.5600   -3.2280 hc        1 MOL      0.042692
     71 H31        -6.0840   -0.9790   -3.6030 hc        1 MOL      0.042692
     72 H32        -4.5170   -2.2900   -4.2130 hn        1 MOL      0.368075
     73 H33        -3.0880   -2.6260   -3.2690 hn        1 MOL      0.368075
     74 N8         -5.8580   -1.4150    0.6090 n         1 MOL     -0.134638
     75 C23        -5.9030   -2.4270    1.6870 c3        1 MOL     -0.357711
     76 C24        -4.5660   -3.1190    1.9080 c         1 MOL      0.655626
     77 O12        -4.4600   -4.1160    2.6980 o         1 MOL     -0.572931
     78 H34        -5.2590   -0.6110    0.7580 hn        1 MOL      0.267077
     79 H35        -6.5990   -3.2000    1.3410 h1        1 MOL      0.162802
     80 H36        -6.3390   -2.0170    2.5990 h1        1 MOL      0.162802
     81 N9         -3.5490   -2.7430    1.0930 n         1 MOL     -0.833128
     82 C25        -2.3100   -3.5980    0.9800 c3        1 MOL      0.709385
     83 C26        -1.0330   -2.7280    1.0250 c         1 MOL      0.209631
     84 O13        -1.0160   -1.5160    0.6630 o         1 MOL     -0.545531
     85 C27        -2.3740   -4.4440   -0.3280 c3        1 MOL     -0.090176
     86 C28        -3.4590   -5.4460   -0.3810 ca        1 MOL      0.115809
     87 C29        -4.6710   -5.1540   -0.9090 ca        1 MOL     -0.275445
     88 C30        -3.1450   -6.7680    0.0840 ca        1 MOL     -0.275445
     89 C31        -5.7400   -6.0710   -0.8820 ca        1 MOL     -0.072077
     90 C32        -4.1670   -7.7240    0.0460 ca        1 MOL     -0.072077
     91 C33        -5.4450   -7.3520   -0.4090 ca        1 MOL      0.166877
     92 O14        -6.5770   -8.1870   -0.2580 oh        1 MOL     -0.474671
     93 H37        -3.7130   -1.9770    0.4520 hn        1 MOL      0.573909
     94 H38        -2.3270   -4.3630    1.7560 h1        1 MOL     -0.052785
     95 H39        -1.3800   -4.8580   -0.5080 hc        1 MOL     -0.010349
     96 H40        -2.4700   -3.6850   -1.1050 hc        1 MOL     -0.010349
     97 H41        -4.8770   -4.1840   -1.3420 ha        1 MOL      0.137464
     98 H42        -2.1600   -7.1040    0.3960 ha        1 MOL      0.137464
     99 H43        -6.6610   -5.8550   -1.4180 ha        1 MOL      0.105057
    100 H44        -4.0610   -8.7820    0.2670 ha        1 MOL      0.105057
    101 H45        -6.4080   -8.9480    0.2920 ho        1 MOL      0.357722
    102 N10         0.0640   -3.3750    1.4540 n         1 MOL     -0.508329
    103 C34         1.4430   -2.7570    1.4470 c3        1 MOL      0.033721
    104 C35         2.4770   -3.7040    0.8820 c         1 MOL      0.550787
    105 O15         2.7920   -4.7660    1.4450 o         1 MOL     -0.521345
    106 C36         1.7930   -2.2430    2.9140 c3        1 MOL     -0.039758
    107 C37         0.6630   -1.3650    3.5860 c3        1 MOL      0.199928
    108 C38         3.0420   -1.3920    2.8720 c3        1 MOL     -0.423260
    109 C39         1.1100   -0.9040    4.9380 c3        1 MOL     -0.268396
    110 H46        -0.0070   -4.3310    1.7610 hn        1 MOL      0.305118
    111 H47         1.4030   -1.8180    0.8970 h1        1 MOL      0.214595
    112 H48         2.0740   -3.0620    3.5850 hc        1 MOL      0.031437
    113 H49        -0.2960   -1.8770    3.6640 hc        1 MOL     -0.005515
    114 H50         0.5290   -0.5110    2.9250 hc        1 MOL     -0.005515
    115 H51         2.6780   -0.4220    2.5320 hc        1 MOL      0.133080
    116 H52         3.5080   -1.3180    3.8590 hc        1 MOL      0.133080
    117 H53         3.6860   -1.7350    2.0700 hc        1 MOL      0.133080
    118 H54         1.5600   -1.7150    5.5260 hc        1 MOL      0.054561
    119 H55         1.8510   -0.1050    4.8570 hc        1 MOL      0.054561
    120 H56         0.3410   -0.4590    5.5740 hc        1 MOL      0.054561
    121 N11         3.0450   -3.2410   -0.2390 n         1 MOL     -0.506877
    122 C40         4.1940   -3.8640   -0.9180 c3        1 MOL      0.222499
    123 C41         5.5810   -3.5170   -0.2680 c         1 MOL      0.338772
    124 O16         5.7020   -2.5480    0.4680 o         1 MOL     -0.244290
    125 C42         4.1460   -3.4260   -2.4290 c3        1 MOL     -0.302011
    126 O17         4.7250   -2.1170   -2.5340 oh        1 MOL     -0.397510
    127 H57         2.6640   -2.4420   -0.7320 hn        1 MOL      0.331005
    128 H58         4.1260   -4.9460   -0.9710 h1        1 MOL      0.041026
    129 H59         3.1000   -3.3790   -2.7030 h1        1 MOL      0.138986
    130 H60         4.8250   -4.1530   -2.8760 h1        1 MOL      0.138986
    131 H61         4.1950   -1.6820   -3.2150 ho        1 MOL      0.393445
    132 N12         6.6890   -4.2040   -0.5700 n         1 MOL     -0.446095
    133 C43         8.0090   -3.7560   -0.1330 c3        1 MOL      0.120317
    134 C44         8.3210   -2.3220   -0.6450 c         1 MOL      0.463410
    135 O18         9.0530   -1.5930   -0.0210 o         1 MOL     -0.502158
    136 C45         9.0020   -4.8220   -0.5730 c3        1 MOL     -0.187540
    137 H62         6.6670   -4.9200   -1.2830 hn        1 MOL      0.301523
    138 H63         8.0000   -3.7830    0.9610 h1        1 MOL      0.082071
    139 H64         8.5480   -5.8100   -0.5900 hc        1 MOL      0.062969
    140 H65         9.2860   -4.5650   -1.5940 hc        1 MOL      0.062969
    141 H66         9.9090   -4.8530    0.0390 hc        1 MOL      0.062969
    142 N13         7.6560   -1.9440   -1.7980 n         1 MOL     -0.289016
    143 C46         7.8070   -0.6830   -2.4830 c3        1 MOL      0.018708
    144 C47         6.9450    0.4310   -1.9890 c         1 MOL      0.461223
    145 O19         7.0180    1.5170   -2.5730 o         1 MOL     -0.552076
    146 C48         7.4710   -0.9360   -4.0020 c3        1 MOL     -0.246553
    147 H67         7.0240   -2.5970   -2.2290 hn        1 MOL      0.207354
    148 H68         8.8490   -0.3560   -2.3670 h1        1 MOL      0.114626
    149 H69         8.1760   -1.6980   -4.3410 hc        1 MOL      0.074319
    150 H70         6.4290   -1.1230   -4.2710 hc        1 MOL      0.074319
    151 H71         7.7600   -0.0410   -4.5390 hc        1 MOL      0.074319
    152 N14         6.1020    0.1730   -0.9750 n         1 MOL     -0.216680
    153 C49         5.3780    1.2300   -0.2320 c3        1 MOL      0.021392
    154 C50         5.6520    1.1360    1.2650 c         1 MOL      0.360960
    155 O20         5.5160    2.1630    1.9800 o         1 MOL     -0.519796
    156 C51         3.9380    0.8830   -0.4740 c3        1 MOL      0.196959
    157 C52         3.0190    2.0670   -0.0100 c3        1 MOL     -0.334070
    158 C53         1.5620    1.6060   -0.3470 c         1 MOL      0.784131
    159 O21         0.8410    2.2850   -1.1360 o         1 MOL     -0.762717
    160 O22         1.0350    0.5880    0.1950 o         1 MOL     -0.762717
    161 H72         5.9760   -0.7880   -0.6640 hn        1 MOL     -0.014297
    162 H73         5.5910    2.2180   -0.6320 h1        1 MOL      0.083748
    163 H74         3.5870    0.0860    0.1820 hc        1 MOL     -0.049496
    164 H75         3.7170    0.5820   -1.4920 hc        1 MOL     -0.049496
    165 H76         3.1980    2.9670   -0.5960 hc        1 MOL      0.093207
    166 H77         3.2580    2.1320    1.0550 hc        1 MOL      0.093207
    167 N15         6.0310   -0.0800    1.8180 n         1 MOL     -0.021553
    168 C54         6.4310   -0.2350    3.2050 c3        1 MOL     -0.126124
    169 H78         5.8310    0.4250    3.8310 h1        1 MOL      0.063752
    170 H79         6.2770   -1.2690    3.5150 h1        1 MOL      0.063752
    171 H80         7.4850    0.0230    3.3110 h1        1 MOL      0.063752
    172 H81         6.1510   -0.8670    1.1870 hn        1 MOL      0.051599
    173 Ca1        -1.1430    0.3430   -1.3030 Ca        1 MOL      1.807250
    174 O23        -0.6610    0.5740   -3.8070 oh        1 MOL     -0.937678
    175 H82        -0.5070    0.1260   -4.6380 ho        1 MOL      0.428832
    176 H83        -1.0590    1.4080   -4.0630 ho        1 MOL      0.428832
    177 O24         0.1600   -1.8510   -2.0860 oh        1 MOL     -0.937678
    178 H84         0.9910   -1.8830   -2.5460 ho        1 MOL      0.428832
    179 H85        -0.3130   -2.6230   -2.3820 ho        1 MOL      0.428832
@<TRIPOS>BOND
     1    1    2 1   
     2    1    4 1   
     3    1    5 1   
     4    1    6 1   
     5    2    3 2   
     6    2    7 1   
     7    7    8 1   
     8    7   15 1   
     9    8    9 1   
    10    8   11 1   
    11    8   16 1   
    12    9   10 2   
    13    9   19 1   
    14   11   12 1   
    15   11   17 1   
    16   11   18 1   
    17   12   13 1   
    18   12   14 1   
    19   19   20 1   
    20   19   28 1   
    21   20   21 1   
    22   20   23 1   
    23   20   29 1   
    24   21   22 2   
    25   21   41 1   
    26   23   24 1   
    27   23   30 1   
    28   23   31 1   
    29   24   25 1   
    30   24   32 1   
    31   24   33 1   
    32   25   26 1   
    33   25   34 1   
    34   25   35 1   
    35   26   27 1   
    36   26   36 1   
    37   26   37 1   
    38   27   38 1   
    39   27   39 1   
    40   27   40 1   
    41   41   42 1   
    42   41   49 1   
    43   42   43 1   
    44   42   45 1   
    45   42   50 1   
    46   43   44 2   
    47   43   53 1   
    48   45   46 1   
    49   45   51 1   
    50   45   52 1   
    51   46   47 1   
    52   46   48 1   
    53   53   54 1   
    54   53   57 1   
    55   54   55 1   
    56   54   58 1   
    57   54   59 1   
    58   55   56 2   
    59   55   60 1   
    60   60   61 1   
    61   60   68 1   
    62   61   62 1   
    63   61   64 1   
    64   61   69 1   
    65   62   63 2   
    66   62   74 1   
    67   64   65 1   
    68   64   70 1   
    69   64   71 1   
    70   65   66 1   
    71   65   67 2   
    72   66   72 1   
    73   66   73 1   
    74   74   75 1   
    75   74   78 1   
    76   75   76 1   
    77   75   79 1   
    78   75   80 1   
    79   76   77 2   
    80   76   81 1   
    81   81   82 1   
    82   81   93 1   
    83   82   83 1   
    84   82   85 1   
    85   82   94 1   
    86   83   84 2   
    87   83  102 1   
    88   85   86 1   
    89   85   95 1   
    90   85   96 1   
    91   86   87 ar  
    92   86   88 ar  
    93   87   89 ar  
    94   87   97 1   
    95   88   90 ar  
    96   88   98 1   
    97   89   91 ar  
    98   89   99 1   
    99   90   91 ar  
   100   90  100 1   
   101   91   92 1   
   102   92  101 1   
   103  102  103 1   
   104  102  110 1   
   105  103  104 1   
   106  103  106 1   
   107  103  111 1   
   108  104  105 2   
   109  104  121 1   
   110  106  107 1   
   111  106  108 1   
   112  106  112 1   
   113  107  109 1   
   114  107  113 1   
   115  107  114 1   
   116  108  115 1   
   117  108  116 1   
   118  108  117 1   
   119  109  118 1   
   120  109  119 1   
   121  109  120 1   
   122  121  122 1   
   123  121  127 1   
   124  122  123 1   
   125  122  125 1   
   126  122  128 1   
   127  123  124 2   
   128  123  132 1   
   129  125  126 1   
   130  125  129 1   
   131  125  130 1   
   132  126  131 1   
   133  132  133 1   
   134  132  137 1   
   135  133  134 1   
   136  133  136 1   
   137  133  138 1   
   138  134  135 2   
   139  134  142 1   
   140  136  139 1   
   141  136  140 1   
   142  136  141 1   
   143  142  143 1   
   144  142  147 1   
   145  143  144 1   
   146  143  146 1   
   147  143  148 1   
   148  144  145 2   
   149  144  152 1   
   150  146  149 1   
   151  146  150 1   
   152  146  151 1   
   153  152  153 1   
   154  152  161 1   
   155  153  154 1   
   156  153  156 1   
   157  153  162 1   
   158  154  155 2   
   159  154  167 1   
   160  156  157 1   
   161  156  163 1   
   162  156  164 1   
   163  157  158 1   
   164  157  165 1   
   165  157  166 1   
   166  158  159 1   
   167  158  160 1   
   168  167  168 1   
   169  167  172 1   
   170  168  169 1   
   171  168  170 1   
   172  168  171 1   
   173  174  175 1   
   174  174  176 1   
   175  177  178 1   
   176  177  179 1   
@<TRIPOS>SUBSTRUCTURE
     1 MOL         1 TEMP              0 ****  ****    0 ROOT
