@<TRIPOS>MOLECULE
MOL
  175   173     1     0     0
SMALL
resp


@<TRIPOS>ATOM
      1 C1          0.6860    3.9910    5.4200 c3        1 MOL     -0.312694
      2 C2         -0.1080    4.1340    4.0530 c         1 MOL      0.628628
      3 O1          0.4190    4.7000    3.0690 o         1 MOL     -0.527724
      4 H1          0.2160    3.2240    6.0350 hc        1 MOL      0.077952
      5 H2          1.7190    3.7090    5.2150 hc        1 MOL      0.077952
      6 H3          0.6680    4.9420    5.9520 hc        1 MOL      0.077952
      7 N1         -1.3580    3.6420    3.9640 n         1 MOL     -0.526632
      8 C3         -2.1610    3.4130    2.7340 c3        1 MOL      0.046650
      9 C4         -2.4800    4.6770    1.9140 c         1 MOL      0.671747
     10 O2         -2.6470    5.7280    2.4810 o         1 MOL     -0.572669
     11 C5         -3.5550    2.8030    3.0650 c3        1 MOL     -0.437211
     12 C6         -4.2880    2.5060    1.7430 c         1 MOL      0.645607
     13 O3         -5.3270    3.1790    1.4730 o         1 MOL     -0.592143
     14 O4         -3.6700    1.7830    0.9620 o         1 MOL     -0.592143
     15 H4         -1.7900    3.3800    4.8380 hn        1 MOL      0.300017
     16 H5         -1.5900    2.6960    2.1420 h1        1 MOL      0.119021
     17 H6         -4.0730    3.6180    3.5720 hc        1 MOL      0.099086
     18 H7         -3.3960    1.9260    3.6880 hc        1 MOL      0.099086
     19 N2         -2.4410    4.5210    0.5940 n         1 MOL     -0.489387
     20 C7         -2.8140    5.6700   -0.3050 c3        1 MOL      0.151436
     21 C8         -3.6530    5.2080   -1.4980 c         1 MOL      0.491213
     22 O5         -3.9240    5.9820   -2.4130 o         1 MOL     -0.571864
     23 C9         -1.4940    6.3620   -0.7030 c3        1 MOL     -0.140388
     24 H8         -2.0530    3.6700    0.2090 hn        1 MOL      0.309530
     25 H9         -3.3540    6.4230    0.2690 h1        1 MOL      0.037853
     26 H10        -0.6450    5.7320   -0.9290 hc        1 MOL      0.035109
     27 H11        -1.6940    7.0220   -1.5490 hc        1 MOL      0.035109
     28 H12        -1.1080    6.9300    0.1510 hc        1 MOL      0.035109
     29 N3         -4.0730    3.9460   -1.4890 n         1 MOL     -0.305091
     30 C10        -4.7300    3.2730   -2.6290 c3        1 MOL      0.133788
     31 C11        -5.9940    2.4730   -2.3170 c         1 MOL      0.297419
     32 O6         -6.7790    2.1510   -3.2010 o         1 MOL     -0.570717
     33 C12        -3.8040    2.3380   -3.4040 c3        1 MOL     -0.194618
     34 C13        -3.0510    1.2880   -2.6950 c         1 MOL      0.756680
     35 O7         -3.6510    0.4190   -2.0920 o         1 MOL     -0.726130
     36 O8         -1.8330    1.3510   -2.5690 o         1 MOL     -0.726130
     37 H13        -3.7930    3.3450   -0.7350 hn        1 MOL      0.186696
     38 H14        -5.1330    4.0890   -3.2420 h1        1 MOL      0.066617
     39 H15        -3.1210    2.9940   -3.9520 hc        1 MOL      0.036989
     40 H16        -4.3530    1.8070   -4.1810 hc        1 MOL      0.036989
     41 N4         -6.2030    2.0950   -1.1050 n         1 MOL      0.062970
     42 C14        -7.2940    1.1900   -0.6740 c3        1 MOL     -0.351738
     43 C15        -7.1590   -0.3070   -1.0180 c         1 MOL      0.572608
     44 O9         -8.0910   -1.0240   -0.7530 o         1 MOL     -0.631003
     45 H17        -5.6690    2.4020   -0.3140 hn        1 MOL     -0.018299
     46 H18        -8.2110    1.5700   -1.1180 h1        1 MOL      0.137197
     47 H19        -7.3100    1.3020    0.4180 h1        1 MOL      0.137197
     48 N5         -6.0810   -0.8100   -1.5880 n         1 MOL     -0.283011
     49 C16        -6.1390   -2.2280   -2.1530 c3        1 MOL     -0.016816
     50 C17        -6.1400   -3.2780   -1.0850 c         1 MOL      0.485736
     51 O10        -6.1540   -4.4990   -1.3860 o         1 MOL     -0.579132
     52 C18        -4.9710   -2.3530   -3.1070 c3        1 MOL     -0.178475
     53 C19        -3.5110   -2.3240   -2.5030 c         1 MOL      0.417375
     54 N6         -2.4740   -2.6030   -3.2950 n         1 MOL     -0.696297
     55 O11        -3.3290   -2.2280   -1.2960 o         1 MOL     -0.000166
     56 H20        -5.3130   -0.1830   -1.7820 hn        1 MOL      0.264807
     57 H21        -7.1130   -2.2510   -2.6350 h1        1 MOL      0.119335
     58 H22        -5.0950   -1.4990   -3.7780 hc        1 MOL      0.051529
     59 H23        -5.0640   -3.2850   -3.6770 hc        1 MOL      0.051529
     60 H24        -2.6470   -2.7180   -4.2850 hn        1 MOL      0.343017
     61 H25        -1.5240   -2.4730   -2.9700 hn        1 MOL      0.343017
     62 N7         -6.1780   -2.9080    0.1880 n         1 MOL     -0.233468
     63 C20        -6.2110   -3.8810    1.2980 c3        1 MOL     -0.216559
     64 C21        -4.8220   -4.3780    1.8070 c         1 MOL      0.479487
     65 O12        -4.7690   -5.1320    2.7640 o         1 MOL     -0.568624
     66 H26        -6.0440   -1.9180    0.3810 hn        1 MOL      0.230724
     67 H27        -6.8140   -4.7670    1.0970 h1        1 MOL      0.119988
     68 H28        -6.7320   -3.4530    2.1530 h1        1 MOL      0.119988
     69 N8         -3.7590   -4.1060    1.0110 n         1 MOL      0.052449
     70 C22        -2.3840   -4.6560    1.1960 c3        1 MOL     -0.405416
     71 C23        -1.2480   -3.6370    1.4040 c         1 MOL      0.502210
     72 O13        -1.3650   -2.5310    0.8020 o         1 MOL     -0.631248
     73 C24        -1.9800   -5.5760    0.0100 c3        1 MOL      0.541056
     74 C25        -2.8540   -6.8140   -0.0860 c3        1 MOL     -0.541230
     75 O14        -2.2320   -4.8620   -1.2020 oh        1 MOL     -0.567863
     76 H29        -3.8970   -3.4520    0.2480 hn        1 MOL     -0.067111
     77 H30        -2.4350   -5.3680    2.0230 h1        1 MOL      0.123980
     78 H31        -0.9170   -5.7840   -0.0590 h1        1 MOL     -0.026486
     79 H32        -2.2420   -3.9260   -0.9870 ho        1 MOL      0.278820
     80 H33        -2.7430   -7.2700    0.8990 hc        1 MOL      0.137682
     81 H34        -3.8360   -6.3860   -0.2590 hc        1 MOL      0.137682
     82 H35        -2.4800   -7.4630   -0.8870 hc        1 MOL      0.137682
     83 N9         -0.2510   -3.8510    2.2020 n         1 MOL     -0.180003
     84 C26         0.9660   -3.0570    2.2800 c3        1 MOL     -0.043838
     85 C27         1.9310   -3.1670    1.0710 c         1 MOL      0.512880
     86 O15         2.5160   -4.2070    0.8040 o         1 MOL     -0.580829
     87 C28         1.7510   -3.3320    3.5310 c3        1 MOL      0.155310
     88 C29         0.9430   -2.8100    4.7900 c3        1 MOL      0.058050
     89 C30         3.1220   -2.6100    3.5620 c3        1 MOL     -0.434616
     90 C31         1.3730   -3.5190    6.1020 c3        1 MOL     -0.157681
     91 H36        -0.2160   -4.8130    2.5110 hn        1 MOL      0.195895
     92 H37         0.6140   -2.0240    2.3730 h1        1 MOL      0.013214
     93 H38         1.8550   -4.4160    3.5580 hc        1 MOL      0.001515
     94 H39        -0.0980   -3.0070    4.5600 hc        1 MOL     -0.009623
     95 H40         1.1620   -1.7440    4.8440 hc        1 MOL     -0.009623
     96 H41         3.7460   -2.8020    4.4310 hc        1 MOL      0.110996
     97 H42         3.8160   -2.6790    2.7230 hc        1 MOL      0.110996
     98 H43         2.9730   -1.5310    3.6790 hc        1 MOL      0.110996
     99 H44         0.9380   -4.5140    6.0980 hc        1 MOL      0.031338
    100 H45         2.4630   -3.5380    6.0090 hc        1 MOL      0.031338
    101 H46         1.1110   -2.9620    7.0050 hc        1 MOL      0.031338
    102 N10         1.8890   -2.1500    0.1720 n         1 MOL     -0.237145
    103 C32         2.6850   -2.0760   -1.0840 c3        1 MOL      0.036676
    104 C33         4.0870   -1.4280   -0.8110 c         1 MOL      0.551820
    105 O16         4.0990   -0.4140   -0.1490 o         1 MOL     -0.470261
    106 C34         1.9330   -1.3180   -2.1810 c3        1 MOL     -0.222800
    107 C35         0.5040   -1.7490   -2.4700 c         1 MOL      0.662648
    108 O17         0.2320   -2.2960   -3.5460 o         1 MOL     -0.664185
    109 O18        -0.3780   -1.4230   -1.6850 o         1 MOL     -0.664185
    110 H47         1.3270   -1.3360    0.4020 hn        1 MOL      0.238888
    111 H48         2.7960   -3.1220   -1.3920 h1        1 MOL      0.072094
    112 H49         2.4010   -1.5910   -3.1240 hc        1 MOL      0.081779
    113 H50         1.9230   -0.2320   -2.0660 hc        1 MOL      0.081779
    114 N11         5.2610   -1.8760   -1.3840 n         1 MOL     -0.757987
    115 C36         6.5910   -1.3020   -1.1060 c3        1 MOL      0.611033
    116 C37         6.6490    0.3060   -1.2180 c         1 MOL      0.199325
    117 O19         7.1210    0.8630   -0.1970 o         1 MOL     -0.466795
    118 C38         7.6510   -2.1130   -1.8660 c3        1 MOL     -0.386527
    119 C39         9.0910   -1.7380   -1.4820 ca        1 MOL      0.126871
    120 C40         9.9550   -1.3290   -2.4550 ca        1 MOL     -0.135529
    121 C41         9.5120   -1.8570   -0.1460 ca        1 MOL     -0.135529
    122 C42        11.2510   -0.9850   -2.1540 ca        1 MOL     -0.144891
    123 C43        10.7790   -1.5140    0.2000 ca        1 MOL     -0.144891
    124 C44        11.6480   -0.9800   -0.7600 ca        1 MOL     -0.081617
    125 H51         5.2530   -2.6750   -2.0040 hn        1 MOL      0.329093
    126 H52         6.8400   -1.5950   -0.0920 h1        1 MOL      0.024835
    127 H53         7.4580   -1.9990   -2.9340 hc        1 MOL      0.103958
    128 H54         7.5050   -3.1930   -1.7700 hc        1 MOL      0.103958
    129 H55         9.5580   -1.1630   -3.4520 ha        1 MOL      0.104514
    130 H56         8.8670   -2.2340    0.6410 ha        1 MOL      0.104514
    131 H57        12.0060   -0.7930   -2.9050 ha        1 MOL      0.117733
    132 H58        11.1240   -1.5190    1.2270 ha        1 MOL      0.117733
    133 H59        12.6450   -0.6880   -0.4590 ha        1 MOL      0.093664
    134 N12         6.1580    0.9810   -2.2850 n         1 MOL     -0.142914
    135 C45         5.8390    2.4230   -2.2910 c3        1 MOL      0.094860
    136 C46         5.1130    2.9960   -1.0520 c         1 MOL      0.179475
    137 O20         5.2400    4.1790   -0.8450 o         1 MOL     -0.486486
    138 C47         5.0360    2.6000   -3.5600 c3        1 MOL     -0.139350
    139 C48         5.4830    1.4940   -4.4980 c3        1 MOL     -0.123611
    140 C49         5.6830    0.3480   -3.4930 c3        1 MOL      0.123308
    141 H60         6.7600    2.9810   -2.4510 h1        1 MOL      0.083832
    142 H61         3.9760    2.3550   -3.4370 hc        1 MOL      0.086573
    143 H62         5.2300    3.6130   -3.9130 hc        1 MOL      0.086573
    144 H63         4.7050    1.2890   -5.2310 hc        1 MOL      0.051427
    145 H64         6.4620    1.7630   -4.9020 hc        1 MOL      0.051427
    146 H65         4.8060   -0.2720   -3.3120 h1        1 MOL     -0.011748
    147 H66         6.4000   -0.4110   -3.8160 h1        1 MOL     -0.011748
    148 N13         4.4860    2.2230   -0.1050 n         1 MOL      0.112308
    149 C50         3.9830    2.6790    1.1880 c3        1 MOL     -0.251692
    150 C51         4.9050    2.1500    2.2580 c         1 MOL      0.580941
    151 O21         5.0230    2.7930    3.3260 o         1 MOL     -0.588582
    152 C52         2.5890    2.0580    1.3710 c3        1 MOL      0.178378
    153 C53         1.5540    2.4490    0.3160 c3        1 MOL     -0.068044
    154 C54         0.1850    1.8450    0.5290 c         1 MOL      0.567625
    155 O22        -0.8540    2.3380   -0.0520 o         1 MOL     -0.682024
    156 O23         0.0830    0.6890    1.0520 o         1 MOL     -0.682024
    157 H67         4.2640    1.2720   -0.3380 hn        1 MOL      0.103562
    158 H68         3.9510    3.7720    1.2050 h1        1 MOL      0.141593
    159 H69         2.1190    2.4940    2.2590 hc        1 MOL     -0.050557
    160 H70         2.6400    0.9710    1.3950 hc        1 MOL     -0.050557
    161 H71         1.8950    2.1990   -0.6840 hc        1 MOL      0.038199
    162 H72         1.3940    3.5190    0.4370 hc        1 MOL      0.038199
    163 N14         5.5040    0.9840    2.0540 n         1 MOL     -0.248521
    164 C55         6.5130    0.4490    3.0230 c3        1 MOL     -0.242571
    165 H73         7.5080    0.5070    2.5810 h1        1 MOL      0.099847
    166 H74         6.4880    1.0410    3.9390 h1        1 MOL      0.099847
    167 H75         6.2790   -0.5900    3.2550 h1        1 MOL      0.099847
    168 H76         5.4990    0.5620    1.1360 hn        1 MOL      0.184742
    169 Ca1        -2.0470   -0.0180   -0.1440 Ca        1 MOL      1.662616
    170 O24        -4.4250   -0.9220    0.9590 oh        1 MOL     -0.783552
    171 H77        -4.7880   -1.1610    1.8210 ho        1 MOL      0.370078
    172 H78        -4.5980    0.0220    0.8900 ho        1 MOL      0.370078
    173 O25        -1.8150   -0.0520    2.8150 oh        1 MOL     -0.783552
    174 H79        -0.8810   -0.0940    2.5720 ho        1 MOL      0.370078
    175 H80        -1.7960    0.1240    3.7560 ho        1 MOL      0.370078
@<TRIPOS>BOND
     1    1    2 1   
     2    1    4 1   
     3    1    5 1   
     4    1    6 1   
     5    2    3 2   
     6    2    7 1   
     7    7    8 1   
     8    7   15 1   
     9    8    9 1   
    10    8   11 1   
    11    8   16 1   
    12    9   10 2   
    13    9   19 1   
    14   11   12 1   
    15   11   17 1   
    16   11   18 1   
    17   12   13 1   
    18   12   14 1   
    19   19   20 1   
    20   19   24 1   
    21   20   21 1   
    22   20   23 1   
    23   20   25 1   
    24   21   22 2   
    25   21   29 1   
    26   23   26 1   
    27   23   27 1   
    28   23   28 1   
    29   29   30 1   
    30   29   37 1   
    31   30   31 1   
    32   30   33 1   
    33   30   38 1   
    34   31   32 2   
    35   31   41 1   
    36   33   34 1   
    37   33   39 1   
    38   33   40 1   
    39   34   35 1   
    40   34   36 1   
    41   41   42 1   
    42   41   45 1   
    43   42   43 1   
    44   42   46 1   
    45   42   47 1   
    46   43   44 2   
    47   43   48 1   
    48   48   49 1   
    49   48   56 1   
    50   49   50 1   
    51   49   52 1   
    52   49   57 1   
    53   50   51 2   
    54   50   62 1   
    55   52   53 1   
    56   52   58 1   
    57   52   59 1   
    58   53   54 1   
    59   53   55 2   
    60   54   60 1   
    61   54   61 1   
    62   62   63 1   
    63   62   66 1   
    64   63   64 1   
    65   63   67 1   
    66   63   68 1   
    67   64   65 2   
    68   64   69 1   
    69   69   70 1   
    70   69   76 1   
    71   70   71 1   
    72   70   73 1   
    73   70   77 1   
    74   71   72 2   
    75   71   83 1   
    76   73   74 1   
    77   73   75 1   
    78   73   78 1   
    79   74   80 1   
    80   74   81 1   
    81   74   82 1   
    82   75   79 1   
    83   83   84 1   
    84   83   91 1   
    85   84   85 1   
    86   84   87 1   
    87   84   92 1   
    88   85   86 2   
    89   85  102 1   
    90   87   88 1   
    91   87   89 1   
    92   87   93 1   
    93   88   90 1   
    94   88   94 1   
    95   88   95 1   
    96   89   96 1   
    97   89   97 1   
    98   89   98 1   
    99   90   99 1   
   100   90  100 1   
   101   90  101 1   
   102  102  103 1   
   103  102  110 1   
   104  103  104 1   
   105  103  106 1   
   106  103  111 1   
   107  104  105 2   
   108  104  114 1   
   109  106  107 1   
   110  106  112 1   
   111  106  113 1   
   112  107  108 1   
   113  107  109 1   
   114  114  115 1   
   115  114  125 1   
   116  115  116 1   
   117  115  118 1   
   118  115  126 1   
   119  116  117 2   
   120  116  134 1   
   121  118  119 1   
   122  118  127 1   
   123  118  128 1   
   124  119  120 ar  
   125  119  121 ar  
   126  120  122 ar  
   127  120  129 1   
   128  121  123 ar  
   129  121  130 1   
   130  122  124 ar  
   131  122  131 1   
   132  123  124 ar  
   133  123  132 1   
   134  124  133 1   
   135  134  135 1   
   136  134  140 1   
   137  135  136 1   
   138  135  138 1   
   139  135  141 1   
   140  136  137 2   
   141  136  148 1   
   142  138  139 1   
   143  138  142 1   
   144  138  143 1   
   145  139  140 1   
   146  139  144 1   
   147  139  145 1   
   148  140  146 1   
   149  140  147 1   
   150  148  149 1   
   151  148  157 1   
   152  149  150 1   
   153  149  152 1   
   154  149  158 1   
   155  150  151 2   
   156  150  163 1   
   157  152  153 1   
   158  152  159 1   
   159  152  160 1   
   160  153  154 1   
   161  153  161 1   
   162  153  162 1   
   163  154  155 1   
   164  154  156 1   
   165  163  164 1   
   166  163  168 1   
   167  164  165 1   
   168  164  166 1   
   169  164  167 1   
   170  170  171 1   
   171  170  172 1   
   172  173  174 1   
   173  173  175 1   
@<TRIPOS>SUBSTRUCTURE
     1 MOL         1 TEMP              0 ****  ****    0 ROOT
