@<TRIPOS>MOLECULE
MOL
  179   176     1     0     0
SMALL
resp


@<TRIPOS>ATOM
      1 C1          1.7400    4.1140    3.8090 c3        1 MOL     -0.337162
      2 C2          0.8310    3.5170    2.7250 c         1 MOL      0.509162
      3 O1          1.2560    3.4800    1.5490 o         1 MOL     -0.598141
      4 H1          1.2620    4.0070    4.7830 hc        1 MOL      0.097369
      5 H2          2.6950    3.5890    3.8140 hc        1 MOL      0.097369
      6 H3          1.9070    5.1710    3.6010 hc        1 MOL      0.097369
      7 N1         -0.3820    3.0980    2.9850 n         1 MOL     -0.406311
      8 C3         -1.3470    2.5400    2.0250 c3        1 MOL     -0.252554
      9 C4         -2.1300    3.7260    1.5100 c         1 MOL      0.623141
     10 O2         -3.2700    4.0150    1.8770 o         1 MOL     -0.459893
     11 C5         -2.2190    1.4900    2.7440 c3        1 MOL     -0.013679
     12 C6         -3.2370    0.8730    1.8350 c         1 MOL      0.584674
     13 O3         -4.3680    0.5660    2.2070 o         1 MOL     -0.649239
     14 O4         -2.8320    0.4940    0.6760 o         1 MOL     -0.649239
     15 H4         -0.7020    3.2800    3.9280 hn        1 MOL      0.320543
     16 H5         -0.8100    2.0680    1.2090 h1        1 MOL      0.149411
     17 H6         -2.7200    1.8910    3.6280 hc        1 MOL      0.035438
     18 H7         -1.6190    0.6680    3.1360 hc        1 MOL      0.035438
     19 N2         -1.5210    4.5270    0.5600 n         1 MOL     -0.440552
     20 C7         -2.0930    5.8160    0.0620 c3        1 MOL     -0.094640
     21 C8         -3.3080    5.5680   -0.8360 c         1 MOL      0.449465
     22 O5         -4.3200    6.2620   -0.8680 o         1 MOL     -0.520900
     23 C9         -1.0020    6.5470   -0.7580 c3        1 MOL      0.048202
     24 C10         0.2330    6.8110    0.0490 c3        1 MOL     -0.159120
     25 C11         1.1270    7.8150   -0.6770 c3        1 MOL      0.071397
     26 C12         1.9890    8.5670    0.3010 c3        1 MOL      0.030179
     27 N3          3.0650    7.6850    0.9120 n4        1 MOL     -0.420537
     28 H8         -0.5530    4.2560    0.4280 hn        1 MOL      0.336870
     29 H9         -2.3360    6.5580    0.8200 h1        1 MOL      0.106040
     30 H10        -1.5020    7.3630   -1.2740 hc        1 MOL      0.032853
     31 H11        -0.6580    5.9710   -1.6160 hc        1 MOL      0.032853
     32 H12         0.8370    5.9020    0.0230 hc        1 MOL      0.057028
     33 H13        -0.0450    7.1790    1.0420 hc        1 MOL      0.057028
     34 H14         0.5820    8.5230   -1.2970 hc        1 MOL      0.033561
     35 H15         1.7870    7.3290   -1.3980 hc        1 MOL      0.033561
     36 H16         1.3910    8.9800    1.1060 hx        1 MOL      0.072157
     37 H17         2.4740    9.3970   -0.2130 hx        1 MOL      0.072157
     38 H18         3.0430    6.7580    0.5080 hn        1 MOL      0.349932
     39 H19         3.9820    8.1090    0.8840 hn        1 MOL      0.349932
     40 H20         2.8780    7.5810    1.8980 hn        1 MOL      0.349932
     41 N4         -3.2310    4.5350   -1.6730 n         1 MOL     -0.318973
     42 C13        -4.3780    4.0600   -2.5240 c3        1 MOL      0.034895
     43 C14        -5.5250    3.3560   -1.7560 c         1 MOL      0.404515
     44 O6         -6.7120    3.3690   -2.1240 o         1 MOL     -0.515996
     45 C15        -3.8810    2.9530   -3.4430 c3        1 MOL     -0.246172
     46 C16        -3.1580    1.8210   -2.6220 c         1 MOL      0.869387
     47 O7         -3.6120    0.6380   -2.6900 o         1 MOL     -0.767217
     48 O8         -2.0760    1.9890   -1.9450 o         1 MOL     -0.767217
     49 H21        -2.3740    3.9910   -1.6710 hn        1 MOL      0.198391
     50 H22        -4.7700    4.8930   -3.1060 h1        1 MOL      0.098593
     51 H23        -3.1050    3.3540   -4.0860 hc        1 MOL      0.068048
     52 H24        -4.7030    2.6130   -4.0830 hc        1 MOL      0.068048
     53 N5         -5.1580    2.8220   -0.5080 n         1 MOL      0.077838
     54 C17        -6.1840    2.3700    0.4130 c3        1 MOL     -0.101733
     55 C18        -6.7870    0.9660    0.2730 c         1 MOL      0.550854
     56 O9         -7.9070    0.7330    0.6600 o         1 MOL     -0.582577
     57 H25        -4.2440    2.8910   -0.0890 hn        1 MOL     -0.032404
     58 H26        -7.0120    3.0630    0.4930 h1        1 MOL      0.069120
     59 H27        -5.7580    2.4820    1.4120 h1        1 MOL      0.069120
     60 N6         -6.1000    0.1650   -0.4980 n         1 MOL     -0.233124
     61 C19        -6.6830   -1.1440   -0.7690 c3        1 MOL      0.072096
     62 C20        -6.4650   -2.1300    0.3590 c         1 MOL      0.377296
     63 O10        -6.8690   -3.2730    0.2670 o         1 MOL     -0.549761
     64 C21        -6.1600   -1.6390   -2.1920 c3        1 MOL     -0.366214
     65 C22        -4.8360   -2.3100   -2.1910 c         1 MOL      0.822320
     66 N7         -4.6200   -3.3460   -2.9640 n         1 MOL     -0.801714
     67 O11        -3.8870   -1.9880   -1.4630 o         1 MOL     -0.703492
     68 H28        -5.2680    0.4430   -1.0090 hn        1 MOL      0.095537
     69 H29        -7.7650   -1.0230   -0.8950 h1        1 MOL      0.108602
     70 H30        -6.1700   -0.8180   -2.9100 hc        1 MOL      0.117157
     71 H31        -6.8940   -2.4000   -2.4670 hc        1 MOL      0.117157
     72 H32        -5.2160   -3.4450   -3.7730 hn        1 MOL      0.353418
     73 H33        -3.7440   -3.8230   -2.8330 hn        1 MOL      0.353418
     74 N8         -5.7600   -1.7330    1.4050 n         1 MOL     -0.129865
     75 C23        -5.7560   -2.3750    2.6980 c3        1 MOL     -0.033490
     76 C24        -4.4170   -2.9300    3.1660 c         1 MOL      0.433933
     77 O12        -4.3430   -3.4620    4.2900 o         1 MOL     -0.573679
     78 H34        -5.3630   -0.8010    1.3420 hn        1 MOL      0.181524
     79 H35        -6.4510   -3.2160    2.7220 h1        1 MOL      0.077852
     80 H36        -6.1310   -1.7620    3.5150 h1        1 MOL      0.077852
     81 N9         -3.4070   -3.0240    2.3010 n         1 MOL     -0.140250
     82 C25        -2.0580   -3.5680    2.5200 c3        1 MOL     -0.034633
     83 C26        -1.0310   -2.8620    1.6630 c         1 MOL      0.698521
     84 O13        -1.2410   -1.9940    0.8680 o         1 MOL     -0.708883
     85 C27        -2.2010   -5.0920    2.2650 c3        1 MOL     -0.151579
     86 C28        -2.4820   -5.4650    0.7720 ca        1 MOL      0.097903
     87 C29        -1.5400   -6.0440   -0.0730 ca        1 MOL     -0.166844
     88 C30        -3.8900   -5.4850    0.4860 ca        1 MOL     -0.166844
     89 C31        -1.9460   -6.3010   -1.3670 ca        1 MOL     -0.236566
     90 C32        -4.3220   -5.9650   -0.7760 ca        1 MOL     -0.236566
     91 C33        -3.3300   -6.1810   -1.7380 ca        1 MOL      0.328037
     92 O14        -3.7070   -6.3300   -3.0540 oh        1 MOL     -0.561876
     93 H37        -3.5360   -2.6890    1.3600 hn        1 MOL      0.212224
     94 H38        -1.7730   -3.4340    3.5660 h1        1 MOL      0.069566
     95 H39        -3.0020   -5.5410    2.8540 hc        1 MOL      0.059852
     96 H40        -1.2260   -5.5480    2.4780 hc        1 MOL      0.059852
     97 H41        -0.4820   -5.8680    0.0510 ha        1 MOL      0.147656
     98 H42        -4.6400   -5.1000    1.1710 ha        1 MOL      0.147656
     99 H43        -1.2140   -6.5890   -2.1080 ha        1 MOL      0.138767
    100 H44        -5.3480   -5.8510   -1.0590 ha        1 MOL      0.138767
    101 H45        -4.6470   -6.1850   -3.1950 ho        1 MOL      0.405278
    102 N10         0.2120   -3.1900    2.0320 n         1 MOL     -0.525511
    103 C34         1.4300   -2.5240    1.4350 c3        1 MOL     -0.011951
    104 C35         2.5380   -3.4890    1.0920 c         1 MOL      0.459361
    105 O15         2.3690   -4.6800    1.3230 o         1 MOL     -0.548708
    106 C36         2.0120   -1.4230    2.3050 c3        1 MOL     -0.055498
    107 C37         2.7280   -2.0650    3.5640 c3        1 MOL     -0.134800
    108 C38         0.9610   -0.3760    2.7910 c3        1 MOL     -0.554752
    109 C39         3.6600   -1.0180    4.2600 c3        1 MOL     -0.226509
    110 H46         0.4120   -3.8640    2.7520 hn        1 MOL      0.330117
    111 H47         1.1260   -2.0240    0.5200 h1        1 MOL      0.190998
    112 H48         2.6690   -0.9040    1.6130 hc        1 MOL      0.065096
    113 H49         3.2770   -2.9820    3.3320 hc        1 MOL      0.081276
    114 H50         1.9190   -2.3920    4.2120 hc        1 MOL      0.081276
    115 H51         0.3990   -0.7650    3.6420 hc        1 MOL      0.193912
    116 H52         1.4560    0.5310    3.1480 hc        1 MOL      0.193912
    117 H53         0.4210   -0.1350    1.8780 hc        1 MOL      0.193912
    118 H54         3.9490   -1.4250    5.2410 hc        1 MOL      0.064870
    119 H55         4.4920   -0.6790    3.6440 hc        1 MOL      0.064870
    120 H56         3.0530   -0.1760    4.5950 hc        1 MOL      0.064870
    121 N11         3.5750   -2.9560    0.4340 n         1 MOL     -0.047113
    122 C40         4.8240   -3.5060   -0.2090 c3        1 MOL     -0.169354
    123 C41         6.0540   -2.6920    0.1110 c         1 MOL      0.464493
    124 O16         5.9790   -1.5600    0.5690 o         1 MOL     -0.420775
    125 C42         4.5670   -3.5620   -1.7210 c3        1 MOL      0.022025
    126 O17         4.5410   -2.2570   -2.3240 oh        1 MOL     -0.594819
    127 H57         3.4850   -1.9600    0.3000 hn        1 MOL      0.019079
    128 H58         4.9400   -4.4940    0.2450 h1        1 MOL      0.103046
    129 H59         3.7600   -4.2300   -2.0340 h1        1 MOL      0.080745
    130 H60         5.4920   -3.9660   -2.1270 h1        1 MOL      0.080745
    131 H61         3.7830   -1.7260   -2.0660 ho        1 MOL      0.463099
    132 N12         7.2690   -3.2800   -0.0480 n         1 MOL     -0.428406
    133 C43         8.6060   -2.6290    0.0670 c3        1 MOL      0.134599
    134 C44         8.6490   -1.2410   -0.6120 c         1 MOL      0.530228
    135 O18         9.1780   -0.3260   -0.0370 o         1 MOL     -0.517227
    136 C45         9.6750   -3.5810   -0.3970 c3        1 MOL     -0.337648
    137 H62         7.1620   -4.2610   -0.2400 hn        1 MOL      0.284691
    138 H63         8.8220   -2.4230    1.1100 h1        1 MOL      0.079291
    139 H64         9.8990   -4.3450    0.3570 hc        1 MOL      0.102425
    140 H65         9.3710   -3.9620   -1.3640 hc        1 MOL      0.102425
    141 H66        10.6110   -3.0250   -0.5100 hc        1 MOL      0.102425
    142 N13         8.0740   -1.0800   -1.7890 n         1 MOL     -0.449917
    143 C46         8.1300    0.2520   -2.5250 c3        1 MOL      0.038389
    144 C47         7.2040    1.2680   -1.8280 c         1 MOL      0.327076
    145 O19         7.5530    2.4420   -1.7300 o         1 MOL     -0.503251
    146 C48         7.7900    0.0730   -3.9890 c3        1 MOL     -0.222580
    147 H67         7.7340   -1.8250   -2.3830 hn        1 MOL      0.316194
    148 H68         9.1340    0.6510   -2.4140 h1        1 MOL      0.125249
    149 H69         6.8430   -0.4520   -4.1550 hc        1 MOL      0.075617
    150 H70         7.7180    1.0330   -4.5050 hc        1 MOL      0.075617
    151 H71         8.5320   -0.4290   -4.6120 hc        1 MOL      0.075617
    152 N14         5.9990    0.9390   -1.3690 n         1 MOL     -0.039645
    153 C49         5.1030    1.7310   -0.5520 c3        1 MOL     -0.298306
    154 C50         5.7370    2.0200    0.8520 c         1 MOL      0.459034
    155 O20         5.4330    3.0720    1.5010 o         1 MOL     -0.585722
    156 C51         3.7030    1.0640   -0.3860 c3        1 MOL      0.016132
    157 C52         2.9690    0.9720   -1.7010 c3        1 MOL     -0.068800
    158 C53         1.7690    0.0130   -1.5720 c         1 MOL      0.870022
    159 O21         2.0150   -1.1990   -1.6940 o         1 MOL     -0.831017
    160 O22         0.6030    0.4400   -1.3880 o         1 MOL     -0.831017
    161 H72         5.6710    0.0360   -1.6610 hn        1 MOL      0.160273
    162 H73         4.9940    2.7150   -1.0010 h1        1 MOL      0.149492
    163 H74         3.1340    1.7450    0.2300 hc        1 MOL      0.096683
    164 H75         3.7410    0.1000    0.1370 hc        1 MOL      0.096683
    165 H76         3.5310    0.5530   -2.5340 hc        1 MOL     -0.003878
    166 H77         2.6120    1.9530   -2.0080 hc        1 MOL     -0.003878
    167 N15         6.6860    1.1490    1.2950 n         1 MOL     -0.012861
    168 C54         7.4730    1.3340    2.5450 c3        1 MOL     -0.250090
    169 H78         6.8100    1.2460    3.4070 h1        1 MOL      0.102560
    170 H79         8.2470    0.5690    2.6050 h1        1 MOL      0.102560
    171 H80         7.9350    2.3210    2.5420 h1        1 MOL      0.102560
    172 H81         6.8180    0.3420    0.7040 hn        1 MOL      0.086670
    173 Ca1        -1.6520   -0.4870   -1.3100 Ca        1 MOL      1.797798
    174 O23         0.0080   -2.9130   -1.9860 oh        1 MOL     -0.837221
    175 H82         0.2680   -3.6290   -2.5640 ho        1 MOL      0.403998
    176 H83         0.7790   -2.3360   -1.9450 ho        1 MOL      0.403998
    177 O24        -1.1720   -0.8070   -3.9980 oh        1 MOL     -0.837221
    178 H84        -1.0970   -0.3950   -4.8570 ho        1 MOL      0.403998
    179 H85        -0.5890   -1.5700   -4.0410 ho        1 MOL      0.403998
@<TRIPOS>BOND
     1    1    2 1   
     2    1    4 1   
     3    1    5 1   
     4    1    6 1   
     5    2    3 2   
     6    2    7 1   
     7    7    8 1   
     8    7   15 1   
     9    8    9 1   
    10    8   11 1   
    11    8   16 1   
    12    9   10 2   
    13    9   19 1   
    14   11   12 1   
    15   11   17 1   
    16   11   18 1   
    17   12   13 1   
    18   12   14 1   
    19   19   20 1   
    20   19   28 1   
    21   20   21 1   
    22   20   23 1   
    23   20   29 1   
    24   21   22 2   
    25   21   41 1   
    26   23   24 1   
    27   23   30 1   
    28   23   31 1   
    29   24   25 1   
    30   24   32 1   
    31   24   33 1   
    32   25   26 1   
    33   25   34 1   
    34   25   35 1   
    35   26   27 1   
    36   26   36 1   
    37   26   37 1   
    38   27   38 1   
    39   27   39 1   
    40   27   40 1   
    41   41   42 1   
    42   41   49 1   
    43   42   43 1   
    44   42   45 1   
    45   42   50 1   
    46   43   44 2   
    47   43   53 1   
    48   45   46 1   
    49   45   51 1   
    50   45   52 1   
    51   46   47 1   
    52   46   48 1   
    53   53   54 1   
    54   53   57 1   
    55   54   55 1   
    56   54   58 1   
    57   54   59 1   
    58   55   56 2   
    59   55   60 1   
    60   60   61 1   
    61   60   68 1   
    62   61   62 1   
    63   61   64 1   
    64   61   69 1   
    65   62   63 2   
    66   62   74 1   
    67   64   65 1   
    68   64   70 1   
    69   64   71 1   
    70   65   66 1   
    71   65   67 2   
    72   66   72 1   
    73   66   73 1   
    74   74   75 1   
    75   74   78 1   
    76   75   76 1   
    77   75   79 1   
    78   75   80 1   
    79   76   77 2   
    80   76   81 1   
    81   81   82 1   
    82   81   93 1   
    83   82   83 1   
    84   82   85 1   
    85   82   94 1   
    86   83   84 2   
    87   83  102 1   
    88   85   86 1   
    89   85   95 1   
    90   85   96 1   
    91   86   87 ar  
    92   86   88 ar  
    93   87   89 ar  
    94   87   97 1   
    95   88   90 ar  
    96   88   98 1   
    97   89   91 ar  
    98   89   99 1   
    99   90   91 ar  
   100   90  100 1   
   101   91   92 1   
   102   92  101 1   
   103  102  103 1   
   104  102  110 1   
   105  103  104 1   
   106  103  106 1   
   107  103  111 1   
   108  104  105 2   
   109  104  121 1   
   110  106  107 1   
   111  106  108 1   
   112  106  112 1   
   113  107  109 1   
   114  107  113 1   
   115  107  114 1   
   116  108  115 1   
   117  108  116 1   
   118  108  117 1   
   119  109  118 1   
   120  109  119 1   
   121  109  120 1   
   122  121  122 1   
   123  121  127 1   
   124  122  123 1   
   125  122  125 1   
   126  122  128 1   
   127  123  124 2   
   128  123  132 1   
   129  125  126 1   
   130  125  129 1   
   131  125  130 1   
   132  126  131 1   
   133  132  133 1   
   134  132  137 1   
   135  133  134 1   
   136  133  136 1   
   137  133  138 1   
   138  134  135 2   
   139  134  142 1   
   140  136  139 1   
   141  136  140 1   
   142  136  141 1   
   143  142  143 1   
   144  142  147 1   
   145  143  144 1   
   146  143  146 1   
   147  143  148 1   
   148  144  145 2   
   149  144  152 1   
   150  146  149 1   
   151  146  150 1   
   152  146  151 1   
   153  152  153 1   
   154  152  161 1   
   155  153  154 1   
   156  153  156 1   
   157  153  162 1   
   158  154  155 2   
   159  154  167 1   
   160  156  157 1   
   161  156  163 1   
   162  156  164 1   
   163  157  158 1   
   164  157  165 1   
   165  157  166 1   
   166  158  159 1   
   167  158  160 1   
   168  167  168 1   
   169  167  172 1   
   170  168  169 1   
   171  168  170 1   
   172  168  171 1   
   173  174  175 1   
   174  174  176 1   
   175  177  178 1   
   176  177  179 1   
@<TRIPOS>SUBSTRUCTURE
     1 MOL         1 TEMP              0 ****  ****    0 ROOT
