@<TRIPOS>MOLECULE
MOL
  179   176     1     0     0
SMALL
resp


@<TRIPOS>ATOM
      1 C1          2.1680    3.0880    4.0930 c3        1 MOL     -0.363024
      2 C2          1.1990    2.7750    2.8920 c         1 MOL      0.730158
      3 O1          1.6720    2.3550    1.8580 o         1 MOL     -0.548468
      4 H1          2.5620    2.1540    4.4960 hc        1 MOL      0.090251
      5 H2          2.9930    3.7080    3.7430 hc        1 MOL      0.090251
      6 H3          1.6210    3.6170    4.8740 hc        1 MOL      0.090251
      7 N1         -0.0900    3.1760    3.0230 n         1 MOL     -0.901639
      8 C3         -1.1240    2.8290    2.0750 c3        1 MOL      0.648178
      9 C4         -1.6870    4.1920    1.5970 c         1 MOL      0.413841
     10 O2         -2.8450    4.4070    1.7920 o         1 MOL     -0.453645
     11 C5         -2.1120    1.8140    2.5940 c3        1 MOL     -0.155004
     12 C6         -3.2350    1.4620    1.5920 c         1 MOL      0.434194
     13 O3         -4.4080    1.2180    1.9640 o         1 MOL     -0.550667
     14 O4         -2.9270    1.3220    0.3830 o         1 MOL     -0.550667
     15 H4         -0.2830    3.6310    3.9120 hn        1 MOL      0.369663
     16 H5         -0.7630    2.3190    1.1910 h1        1 MOL     -0.140969
     17 H6         -2.6120    2.1900    3.4880 hc        1 MOL      0.042856
     18 H7         -1.6570    0.8710    2.8680 hc        1 MOL      0.042856
     19 N2         -0.8540    5.0710    1.0680 n         1 MOL     -0.455625
     20 C7         -1.3160    6.3050    0.3750 c3        1 MOL      0.054261
     21 C8         -2.2500    6.1400   -0.8960 c         1 MOL      0.368426
     22 O5         -2.8120    7.1840   -1.2980 o         1 MOL     -0.526953
     23 C9         -0.1010    7.0800   -0.0620 c3        1 MOL     -0.143296
     24 C10         0.7930    7.3220    1.1300 c3        1 MOL      0.046349
     25 C11         2.1210    7.9780    0.5290 c3        1 MOL      0.130405
     26 C12         3.2570    8.1330    1.6300 c3        1 MOL     -0.322035
     27 N3          3.9880    6.9030    1.8860 n4        1 MOL     -0.213712
     28 H8          0.0710    4.7280    0.8310 hn        1 MOL      0.330336
     29 H9         -1.8140    6.8420    1.1860 h1        1 MOL      0.107460
     30 H10        -0.5000    7.9910   -0.5050 hc        1 MOL      0.067436
     31 H11         0.4580    6.4950   -0.7880 hc        1 MOL      0.067436
     32 H12         1.1450    6.3980    1.5940 hc        1 MOL     -0.014026
     33 H13         0.4350    8.0660    1.8380 hc        1 MOL     -0.014026
     34 H14         1.9130    8.9740    0.1590 hc        1 MOL      0.029124
     35 H15         2.4280    7.4430   -0.3690 hc        1 MOL      0.029124
     36 H16         2.8720    8.3700    2.6270 hx        1 MOL      0.173055
     37 H17         3.8960    8.8720    1.1470 hx        1 MOL      0.173055
     38 H18         4.3840    6.4520    1.0730 hn        1 MOL      0.308094
     39 H19         4.8180    6.9970    2.4590 hn        1 MOL      0.308094
     40 H20         3.4150    6.3140    2.4650 hn        1 MOL      0.308094
     41 N4         -2.4980    4.9610   -1.4140 n         1 MOL     -0.107635
     42 C13        -3.4650    4.7040   -2.5080 c3        1 MOL     -0.097491
     43 C14        -4.8110    4.1350   -1.9930 c         1 MOL      0.418490
     44 O6         -5.8220    4.0630   -2.6970 o         1 MOL     -0.488192
     45 C15        -2.8630    3.7020   -3.5220 c3        1 MOL     -0.206532
     46 C16        -2.1800    2.4060   -2.9710 c         1 MOL      0.775593
     47 O7         -2.8270    1.3430   -2.9620 o         1 MOL     -0.748762
     48 O8         -1.0670    2.5290   -2.3860 o         1 MOL     -0.748762
     49 H21        -1.8420    4.2220   -1.1970 hn        1 MOL      0.162458
     50 H22        -3.7460    5.6470   -2.9720 h1        1 MOL      0.134130
     51 H23        -2.1300    4.1630   -4.1720 hc        1 MOL      0.061561
     52 H24        -3.6030    3.4470   -4.2840 hc        1 MOL      0.061561
     53 N5         -4.7920    3.7950   -0.6610 n         1 MOL      0.042718
     54 C17        -6.0270    3.5160    0.0550 c3        1 MOL     -0.265910
     55 C18        -6.7120    2.2530   -0.3950 c         1 MOL      0.489399
     56 O9         -7.9080    2.2610   -0.7840 o         1 MOL     -0.558055
     57 H25        -3.9010    3.8390   -0.1920 hn        1 MOL     -0.010960
     58 H26        -6.7100    4.3220   -0.2030 h1        1 MOL      0.122868
     59 H27        -5.8860    3.4280    1.1340 h1        1 MOL      0.122868
     60 N6         -5.9790    1.1430   -0.6040 n         1 MOL     -0.022428
     61 C19        -6.4670   -0.1220   -1.1170 c3        1 MOL     -0.059277
     62 C20        -6.5900   -1.3370   -0.1000 c         1 MOL      0.289963
     63 O10        -7.3440   -2.2520   -0.3860 o         1 MOL     -0.481591
     64 C21        -5.6660   -0.4580   -2.4150 c3        1 MOL     -0.057577
     65 C22        -4.6680   -1.4740   -2.2260 c         1 MOL      0.634798
     66 N7         -4.5670   -2.4520   -3.1050 n         1 MOL     -0.675885
     67 O11        -3.8630   -1.4210   -1.2850 o         1 MOL     -0.677992
     68 H28        -5.0370    1.1920   -0.2270 hn        1 MOL     -0.061817
     69 H29        -7.5140    0.0590   -1.3810 h1        1 MOL      0.112805
     70 H30        -5.1490    0.4550   -2.7200 hc        1 MOL      0.050562
     71 H31        -6.3180   -0.7800   -3.2190 hc        1 MOL      0.050562
     72 H32        -5.1450   -2.4380   -3.9310 hn        1 MOL      0.338326
     73 H33        -3.8680   -3.1760   -2.9630 hn        1 MOL      0.338326
     74 N8         -5.9410   -1.2580    1.0510 n         1 MOL     -0.021171
     75 C23        -6.1020   -2.1040    2.1850 c3        1 MOL     -0.095688
     76 C24        -4.7990   -2.8710    2.3570 c         1 MOL      0.473595
     77 O12        -4.6130   -3.7850    3.1750 o         1 MOL     -0.575010
     78 H34        -5.4220   -0.4250    1.2910 hn        1 MOL      0.122206
     79 H35        -7.0010   -2.7130    2.0620 h1        1 MOL      0.087677
     80 H36        -6.2800   -1.5320    3.0890 h1        1 MOL      0.087677
     81 N9         -3.8180   -2.6610    1.4500 n         1 MOL     -0.213471
     82 C25        -2.5620   -3.4430    1.4530 c3        1 MOL      0.280324
     83 C26        -1.2360   -2.5740    1.4490 c         1 MOL      0.279890
     84 O13        -1.3430   -1.3850    1.2960 o         1 MOL     -0.599365
     85 C27        -2.5740   -4.4330    0.2690 c3        1 MOL      0.135357
     86 C28        -3.5480   -5.5550    0.2610 ca        1 MOL      0.017556
     87 C29        -3.2030   -6.8720    0.7270 ca        1 MOL     -0.228882
     88 C30        -4.8810   -5.4470   -0.1950 ca        1 MOL     -0.228882
     89 C31        -4.1320   -7.9020    0.6360 ca        1 MOL     -0.109925
     90 C32        -5.8040   -6.4860   -0.2650 ca        1 MOL     -0.109925
     91 C33        -5.3830   -7.7560    0.0980 ca        1 MOL      0.193553
     92 O14        -6.2160   -8.8550    0.0720 oh        1 MOL     -0.449621
     93 H37        -4.0550   -2.0810    0.6520 hn        1 MOL      0.190214
     94 H38        -2.4250   -4.0730    2.3320 h1        1 MOL     -0.000782
     95 H39        -1.6030   -4.8400    0.0170 hc        1 MOL     -0.020260
     96 H40        -2.7930   -3.9250   -0.6810 hc        1 MOL     -0.020260
     97 H41        -2.1960   -7.1340    1.0180 ha        1 MOL      0.107235
     98 H42        -5.1650   -4.5170   -0.6410 ha        1 MOL      0.107235
     99 H43        -3.9110   -8.9110    0.9440 ha        1 MOL      0.116580
    100 H44        -6.8330   -6.3860   -0.5460 ha        1 MOL      0.116580
    101 H45        -5.7960   -9.5640    0.5700 ho        1 MOL      0.328950
    102 N10        -0.0670   -3.2320    1.6020 n         1 MOL     -0.321077
    103 C34         1.2110   -2.5740    1.5330 c3        1 MOL      0.026526
    104 C35         2.1770   -3.4410    0.6890 c         1 MOL      0.330123
    105 O15         2.0470   -4.6780    0.7750 o         1 MOL     -0.544008
    106 C36         1.9310   -2.3680    2.9130 c3        1 MOL      0.044127
    107 C37         0.9320   -1.8000    3.9820 c3        1 MOL      0.199118
    108 C38         3.1570   -1.4250    2.8510 c3        1 MOL     -0.369248
    109 C39         1.4660   -1.8090    5.4190 c3        1 MOL     -0.434511
    110 H46        -0.0510   -4.2360    1.7380 hn        1 MOL      0.258169
    111 H47         1.0880   -1.6270    1.0200 h1        1 MOL      0.106453
    112 H48         2.2660   -3.3180    3.3200 hc        1 MOL      0.025615
    113 H49         0.0630   -2.4680    3.9860 hc        1 MOL      0.017031
    114 H50         0.5860   -0.8200    3.6780 hc        1 MOL      0.017031
    115 H51         2.9060   -0.4030    2.5840 hc        1 MOL      0.080086
    116 H52         3.6990   -1.4220    3.8010 hc        1 MOL      0.080086
    117 H53         3.8640   -1.7680    2.0950 hc        1 MOL      0.080086
    118 H54         2.2620   -1.0680    5.5380 hc        1 MOL      0.103025
    119 H55         0.6660   -1.5530    6.1030 hc        1 MOL      0.103025
    120 H56         1.8150   -2.8170    5.6400 hc        1 MOL      0.103025
    121 N11         3.0860   -2.8540   -0.0090 n         1 MOL      0.025437
    122 C40         4.1600   -3.5540   -0.7330 c3        1 MOL     -0.173416
    123 C41         5.5660   -3.1170   -0.2480 c         1 MOL      0.415286
    124 O16         5.7480   -2.1280    0.4650 o         1 MOL     -0.346604
    125 C42         4.0650   -3.4110   -2.2540 c3        1 MOL     -0.118974
    126 O17         4.1480   -2.0330   -2.4860 oh        1 MOL     -0.504185
    127 H57         3.0260   -1.8480   -0.0810 hn        1 MOL      0.276680
    128 H58         4.0430   -4.6010   -0.4620 h1        1 MOL      0.082160
    129 H59         3.0560   -3.6610   -2.5840 h1        1 MOL      0.106807
    130 H60         4.7950   -3.9630   -2.8360 h1        1 MOL      0.106807
    131 H61         3.2090   -1.8150   -2.4240 ho        1 MOL      0.350793
    132 N12         6.5380   -3.8690   -0.7260 n         1 MOL     -0.322549
    133 C43         7.9640   -3.6150   -0.4010 c3        1 MOL     -0.005391
    134 C44         8.4270   -2.2520   -0.9630 c         1 MOL      0.482141
    135 O18         9.2690   -1.6080   -0.2540 o         1 MOL     -0.512080
    136 C45         8.9200   -4.7190   -0.9820 c3        1 MOL     -0.210894
    137 H62         6.4090   -4.7110   -1.2700 hn        1 MOL      0.278969
    138 H63         8.0770   -3.6820    0.6770 h1        1 MOL      0.117085
    139 H64         8.5990   -5.7450   -0.8020 hc        1 MOL      0.073563
    140 H65         8.9200   -4.5790   -2.0700 hc        1 MOL      0.073563
    141 H66         9.9760   -4.5580   -0.7780 hc        1 MOL      0.073563
    142 N13         7.9700   -1.7740   -2.1570 n         1 MOL     -0.361252
    143 C46         8.2370   -0.4300   -2.7070 c3        1 MOL      0.106145
    144 C47         7.4460    0.6120   -1.8510 c         1 MOL      0.405054
    145 O19         8.1200    1.5720   -1.4290 o         1 MOL     -0.531371
    146 C48         8.0080   -0.4350   -4.2210 c3        1 MOL     -0.280649
    147 H67         7.4550   -2.4550   -2.7020 hn        1 MOL      0.273448
    148 H68         9.2930   -0.2690   -2.5040 h1        1 MOL      0.093283
    149 H69         8.6910   -1.1380   -4.6980 hc        1 MOL      0.084658
    150 H70         7.0440   -0.8250   -4.5340 hc        1 MOL      0.084658
    151 H71         8.1380    0.5650   -4.6240 hc        1 MOL      0.084658
    152 N14         6.2310    0.3830   -1.3960 n         1 MOL     -0.154613
    153 C49         5.5150    1.2460   -0.3820 c3        1 MOL     -0.186267
    154 C50         6.1320    1.2200    1.0180 c         1 MOL      0.535362
    155 O20         6.0770    2.2630    1.6400 o         1 MOL     -0.613969
    156 C51         4.0170    0.7840   -0.3150 c3        1 MOL      0.100028
    157 C52         3.1540    1.0780   -1.5440 c3        1 MOL     -0.054418
    158 C53         1.8060    0.2580   -1.5170 c         1 MOL      0.728948
    159 O21         1.7100   -0.8880   -1.9640 o         1 MOL     -0.737062
    160 O22         0.8640    0.6890   -0.8200 o         1 MOL     -0.737062
    161 H72         5.8370   -0.5200   -1.5940 hn        1 MOL      0.101463
    162 H73         5.5370    2.2910   -0.6640 h1        1 MOL      0.127414
    163 H74         3.5720    1.2410    0.5710 hc        1 MOL     -0.004236
    164 H75         4.0810   -0.3020   -0.2200 hc        1 MOL     -0.004236
    165 H76         3.6460    0.8330   -2.4940 hc        1 MOL     -0.002084
    166 H77         2.9220    2.1450   -1.6120 hc        1 MOL     -0.002084
    167 N15         6.8520    0.1960    1.4510 n         1 MOL     -0.035320
    168 C54         7.4570    0.0360    2.7730 c3        1 MOL     -0.333460
    169 H78         7.7750   -0.9990    2.9040 h1        1 MOL      0.123590
    170 H79         8.3220    0.6940    2.8590 h1        1 MOL      0.123590
    171 H80         6.7270    0.2920    3.5410 h1        1 MOL      0.123590
    172 H81         6.7390   -0.6360    0.8840 hn        1 MOL      0.058239
    173 Ca1        -1.5660   -0.0500   -1.1920 Ca        1 MOL      1.779354
    174 O23        -0.1620   -2.6880   -1.4560 oh        1 MOL     -0.866811
    175 H82         0.0630   -3.4620   -1.9730 ho        1 MOL      0.413945
    176 H83         0.5330   -2.0600   -1.6520 ho        1 MOL      0.413945
    177 O24        -1.6450   -1.0330   -3.5720 oh        1 MOL     -0.866811
    178 H84        -1.8990   -1.9030   -3.8840 ho        1 MOL      0.413945
    179 H85        -1.4450   -0.5480   -4.3830 ho        1 MOL      0.413945
@<TRIPOS>BOND
     1    1    2 1   
     2    1    4 1   
     3    1    5 1   
     4    1    6 1   
     5    2    3 2   
     6    2    7 1   
     7    7    8 1   
     8    7   15 1   
     9    8    9 1   
    10    8   11 1   
    11    8   16 1   
    12    9   10 2   
    13    9   19 1   
    14   11   12 1   
    15   11   17 1   
    16   11   18 1   
    17   12   13 1   
    18   12   14 1   
    19   19   20 1   
    20   19   28 1   
    21   20   21 1   
    22   20   23 1   
    23   20   29 1   
    24   21   22 2   
    25   21   41 1   
    26   23   24 1   
    27   23   30 1   
    28   23   31 1   
    29   24   25 1   
    30   24   32 1   
    31   24   33 1   
    32   25   26 1   
    33   25   34 1   
    34   25   35 1   
    35   26   27 1   
    36   26   36 1   
    37   26   37 1   
    38   27   38 1   
    39   27   39 1   
    40   27   40 1   
    41   41   42 1   
    42   41   49 1   
    43   42   43 1   
    44   42   45 1   
    45   42   50 1   
    46   43   44 2   
    47   43   53 1   
    48   45   46 1   
    49   45   51 1   
    50   45   52 1   
    51   46   47 1   
    52   46   48 1   
    53   53   54 1   
    54   53   57 1   
    55   54   55 1   
    56   54   58 1   
    57   54   59 1   
    58   55   56 2   
    59   55   60 1   
    60   60   61 1   
    61   60   68 1   
    62   61   62 1   
    63   61   64 1   
    64   61   69 1   
    65   62   63 2   
    66   62   74 1   
    67   64   65 1   
    68   64   70 1   
    69   64   71 1   
    70   65   66 1   
    71   65   67 2   
    72   66   72 1   
    73   66   73 1   
    74   74   75 1   
    75   74   78 1   
    76   75   76 1   
    77   75   79 1   
    78   75   80 1   
    79   76   77 2   
    80   76   81 1   
    81   81   82 1   
    82   81   93 1   
    83   82   83 1   
    84   82   85 1   
    85   82   94 1   
    86   83   84 2   
    87   83  102 1   
    88   85   86 1   
    89   85   95 1   
    90   85   96 1   
    91   86   87 ar  
    92   86   88 ar  
    93   87   89 ar  
    94   87   97 1   
    95   88   90 ar  
    96   88   98 1   
    97   89   91 ar  
    98   89   99 1   
    99   90   91 ar  
   100   90  100 1   
   101   91   92 1   
   102   92  101 1   
   103  102  103 1   
   104  102  110 1   
   105  103  104 1   
   106  103  106 1   
   107  103  111 1   
   108  104  105 2   
   109  104  121 1   
   110  106  107 1   
   111  106  108 1   
   112  106  112 1   
   113  107  109 1   
   114  107  113 1   
   115  107  114 1   
   116  108  115 1   
   117  108  116 1   
   118  108  117 1   
   119  109  118 1   
   120  109  119 1   
   121  109  120 1   
   122  121  122 1   
   123  121  127 1   
   124  122  123 1   
   125  122  125 1   
   126  122  128 1   
   127  123  124 2   
   128  123  132 1   
   129  125  126 1   
   130  125  129 1   
   131  125  130 1   
   132  126  131 1   
   133  132  133 1   
   134  132  137 1   
   135  133  134 1   
   136  133  136 1   
   137  133  138 1   
   138  134  135 2   
   139  134  142 1   
   140  136  139 1   
   141  136  140 1   
   142  136  141 1   
   143  142  143 1   
   144  142  147 1   
   145  143  144 1   
   146  143  146 1   
   147  143  148 1   
   148  144  145 2   
   149  144  152 1   
   150  146  149 1   
   151  146  150 1   
   152  146  151 1   
   153  152  153 1   
   154  152  161 1   
   155  153  154 1   
   156  153  156 1   
   157  153  162 1   
   158  154  155 2   
   159  154  167 1   
   160  156  157 1   
   161  156  163 1   
   162  156  164 1   
   163  157  158 1   
   164  157  165 1   
   165  157  166 1   
   166  158  159 1   
   167  158  160 1   
   168  167  168 1   
   169  167  172 1   
   170  168  169 1   
   171  168  170 1   
   172  168  171 1   
   173  174  175 1   
   174  174  176 1   
   175  177  178 1   
   176  177  179 1   
@<TRIPOS>SUBSTRUCTURE
     1 MOL         1 TEMP              0 ****  ****    0 ROOT
