@<TRIPOS>MOLECULE
MOL
  175   173     1     0     0
SMALL
resp


@<TRIPOS>ATOM
      1 C1          0.5310    4.4450    5.4060 c3        1 MOL     -0.339785
      2 C2         -0.1470    4.3870    4.0330 c         1 MOL      0.794821
      3 O1          0.5930    4.5540    3.0810 o         1 MOL     -0.576757
      4 H1          0.3370    5.4140    5.8650 hc        1 MOL      0.075138
      5 H2          0.1330    3.6550    6.0420 hc        1 MOL      0.075138
      6 H3          1.6060    4.3100    5.2860 hc        1 MOL      0.075138
      7 N1         -1.4580    4.1910    3.9670 n         1 MOL     -0.798346
      8 C3         -2.1440    3.8360    2.7270 c3        1 MOL      0.500848
      9 C4         -2.3380    5.0260    1.7520 c         1 MOL      0.467149
     10 O2         -2.4320    6.1950    2.1550 o         1 MOL     -0.561996
     11 C5         -3.4530    3.0450    2.9570 c3        1 MOL     -0.574598
     12 C6         -4.1370    2.4400    1.7130 c         1 MOL      0.920909
     13 O3         -3.3560    2.1480    0.7840 o         1 MOL     -0.713385
     14 O4         -5.3490    2.1180    1.7040 o         1 MOL     -0.713385
     15 H4         -2.0070    4.1730    4.8080 hn        1 MOL      0.354861
     16 H5         -1.4660    3.1770    2.1920 h1        1 MOL      0.000987
     17 H6         -4.1880    3.7750    3.2810 hc        1 MOL      0.106700
     18 H7         -3.2340    2.2010    3.6170 hc        1 MOL      0.106700
     19 N2         -2.3930    4.6660    0.4860 n         1 MOL     -0.570313
     20 C7         -2.4630    5.5300   -0.6630 c3        1 MOL      0.372412
     21 C8         -3.5000    5.0290   -1.7570 c         1 MOL      0.398240
     22 O5         -3.6100    5.7790   -2.7050 o         1 MOL     -0.557931
     23 C9         -1.0280    5.9230   -1.0880 c3        1 MOL     -0.207635
     24 H8         -2.0740    3.7270    0.3090 hn        1 MOL      0.367787
     25 H9         -2.8890    6.4940   -0.3620 h1        1 MOL     -0.007793
     26 H10        -0.6540    6.7850   -0.5360 hc        1 MOL      0.049751
     27 H11        -0.4240    5.0300   -0.9880 hc        1 MOL      0.049751
     28 H12        -0.9330    6.2640   -2.1120 hc        1 MOL      0.049751
     29 N3         -4.1170    3.8140   -1.6800 n         1 MOL     -0.209356
     30 C10        -5.0720    3.3050   -2.6750 c3        1 MOL     -0.059833
     31 C11        -6.2070    2.3870   -2.2990 c         1 MOL      0.383990
     32 O6         -7.0320    2.0090   -3.1300 o         1 MOL     -0.511032
     33 C12        -4.2230    2.6120   -3.8000 c3        1 MOL     -0.132015
     34 C13        -3.4440    1.4410   -3.2250 c         1 MOL      0.716027
     35 O7         -2.5620    1.0020   -3.9500 o         1 MOL     -0.679306
     36 O8         -3.6610    0.8440   -2.1400 o         1 MOL     -0.679306
     37 H13        -4.0180    3.2320   -0.8650 hn        1 MOL      0.060523
     38 H14        -5.5860    4.1710   -3.0970 h1        1 MOL      0.093184
     39 H15        -3.5650    3.3210   -4.3020 hc        1 MOL      0.046554
     40 H16        -4.9880    2.2200   -4.4730 hc        1 MOL      0.046554
     41 N4         -6.3020    2.0070   -1.0220 n         1 MOL     -0.142567
     42 C14        -7.2700    1.0760   -0.5150 c3        1 MOL     -0.382000
     43 C15        -7.1830   -0.3620   -1.0790 c         1 MOL      0.545211
     44 O9         -8.1680   -1.0780   -1.1220 o         1 MOL     -0.606129
     45 H17        -5.6340    2.3350   -0.3480 hn        1 MOL      0.180058
     46 H18        -8.2400    1.4890   -0.7960 h1        1 MOL      0.156848
     47 H19        -7.1370    1.0830    0.5710 h1        1 MOL      0.156848
     48 N5         -6.0470   -0.8710   -1.5610 n         1 MOL     -0.221389
     49 C16        -5.9650   -2.2770   -1.9800 c3        1 MOL     -0.026522
     50 C17        -5.9930   -3.3720   -0.9380 c         1 MOL      0.423199
     51 O10        -5.8730   -4.5710   -1.3100 o         1 MOL     -0.534781
     52 C18        -4.8440   -2.4530   -3.0010 c3        1 MOL     -0.094927
     53 C19        -3.4710   -2.5100   -2.3730 c         1 MOL      0.670994
     54 N6         -2.4910   -2.8180   -3.1840 n         1 MOL     -0.705437
     55 O11        -3.3140   -2.2410   -1.1830 o         1 MOL     -0.712605
     56 H20        -5.2790   -0.2490   -1.8020 hn        1 MOL      0.211688
     57 H21        -6.8820   -2.4870   -2.5510 h1        1 MOL      0.107843
     58 H22        -4.7700   -1.6560   -3.7480 hc        1 MOL      0.038002
     59 H23        -5.1120   -3.2880   -3.6410 hc        1 MOL      0.038002
     60 H24        -2.7400   -2.8900   -4.1580 hn        1 MOL      0.344786
     61 H25        -1.6020   -2.3820   -2.9620 hn        1 MOL      0.344786
     62 N7         -6.0250   -3.0850    0.3760 n         1 MOL     -0.225938
     63 C20        -6.1140   -4.0610    1.4650 c3        1 MOL     -0.146785
     64 C21        -4.7860   -4.5760    2.0140 c         1 MOL      0.574798
     65 O12        -4.7320   -5.3430    2.9080 o         1 MOL     -0.585845
     66 H26        -6.0250   -2.1070    0.6500 hn        1 MOL      0.209424
     67 H27        -6.7200   -4.9470    1.2610 h1        1 MOL      0.084566
     68 H28        -6.6470   -3.5930    2.2830 h1        1 MOL      0.084566
     69 N8         -3.7250   -4.1830    1.3120 n         1 MOL     -0.454984
     70 C22        -2.2930   -4.5830    1.5440 c3        1 MOL     -0.027554
     71 C23        -1.3370   -3.3980    1.6570 c         1 MOL      0.481691
     72 O13        -1.5050   -2.4000    0.9390 o         1 MOL     -0.582706
     73 C24        -1.8500   -5.4660    0.4140 c3        1 MOL      0.608473
     74 C25        -2.3770   -6.9080    0.4960 c3        1 MOL     -0.591804
     75 O14        -2.1290   -4.9770   -0.8610 oh        1 MOL     -0.614100
     76 H29        -3.8790   -3.6230    0.4880 hn        1 MOL      0.371505
     77 H30        -2.2260   -5.1790    2.4570 h1        1 MOL      0.066709
     78 H31        -0.7670   -5.5650    0.4350 h1        1 MOL     -0.073985
     79 H32        -1.7440   -4.0990   -0.9360 ho        1 MOL      0.370668
     80 H33        -2.1540   -7.5040   -0.4000 hc        1 MOL      0.145150
     81 H34        -1.9570   -7.2570    1.4340 hc        1 MOL      0.145150
     82 H35        -3.4640   -6.9560    0.4720 hc        1 MOL      0.145150
     83 N9         -0.2410   -3.6560    2.2780 n         1 MOL     -0.473859
     84 C26         0.9550   -2.8350    2.1490 c3        1 MOL     -0.004436
     85 C27         1.6000   -3.0310    0.7890 c         1 MOL      0.522668
     86 O15         1.9700   -4.1200    0.4630 o         1 MOL     -0.590162
     87 C28         2.0050   -3.0430    3.3210 c3        1 MOL      0.134171
     88 C29         1.4280   -2.9330    4.7720 c3        1 MOL      0.007584
     89 C30         3.1300   -2.0170    3.2080 c3        1 MOL     -0.174358
     90 C31         2.3020   -3.5590    5.8220 c3        1 MOL     -0.057893
     91 H36        -0.1210   -4.5210    2.7820 hn        1 MOL      0.280109
     92 H37         0.5380   -1.8250    2.0860 h1        1 MOL      0.061718
     93 H38         2.4420   -4.0320    3.1670 hc        1 MOL     -0.008226
     94 H39         0.4330   -3.3710    4.8860 hc        1 MOL     -0.005317
     95 H40         1.2790   -1.8620    4.9150 hc        1 MOL     -0.005317
     96 H41         3.6350   -2.1700    2.2530 hc        1 MOL      0.037816
     97 H42         2.7580   -0.9970    3.3330 hc        1 MOL      0.037816
     98 H43         3.9230   -2.2720    3.9130 hc        1 MOL      0.037816
     99 H44         3.3690   -3.3640    5.8630 hc        1 MOL      0.008804
    100 H45         1.9200   -3.3070    6.8030 hc        1 MOL      0.008804
    101 H46         2.1390   -4.6300    5.7330 hc        1 MOL      0.008804
    102 N10         1.7750   -1.9950    0.0000 n         1 MOL     -0.155138
    103 C32         2.6190   -1.8740   -1.1950 c3        1 MOL     -0.001068
    104 C33         4.0410   -1.4120   -0.9280 c         1 MOL      0.548414
    105 O16         4.3020   -1.0260    0.1720 o         1 MOL     -0.443753
    106 C34         1.8400   -0.9290   -2.2140 c3        1 MOL     -0.387653
    107 C35         0.4570   -1.3540   -2.6960 c         1 MOL      0.698607
    108 O17        -0.5450   -1.1910   -1.9180 o         1 MOL     -0.646895
    109 O18         0.2220   -1.7930   -3.8470 o         1 MOL     -0.646895
    110 H47         1.3870   -1.1400    0.3680 hn        1 MOL      0.234504
    111 H48         2.8220   -2.8790   -1.5680 h1        1 MOL      0.068433
    112 H49         2.4280   -0.6330   -3.0790 hc        1 MOL      0.131412
    113 H50         1.7400    0.0590   -1.7610 hc        1 MOL      0.131412
    114 N11         4.9480   -1.4450   -1.9270 n         1 MOL     -0.577229
    115 C36         6.3780   -1.2090   -1.6270 c3        1 MOL      0.253077
    116 C37         6.6680    0.2310   -1.1760 c         1 MOL      0.331061
    117 O19         7.4590    0.4280   -0.2580 o         1 MOL     -0.476043
    118 C38         7.2330   -1.4910   -2.8650 c3        1 MOL     -0.029833
    119 C39         8.6710   -1.5530   -2.6160 ca        1 MOL      0.003741
    120 C40         9.2500   -2.6920   -1.9500 ca        1 MOL     -0.172468
    121 C41         9.4730   -0.4170   -2.8370 ca        1 MOL     -0.172468
    122 C42        10.6670   -2.7240   -1.6940 ca        1 MOL     -0.054737
    123 C43        10.8620   -0.4770   -2.5590 ca        1 MOL     -0.054737
    124 C44        11.4820   -1.6710   -2.0460 ca        1 MOL     -0.165594
    125 H51         4.7410   -1.9620   -2.7630 hn        1 MOL      0.301377
    126 H52         6.7350   -1.8670   -0.8320 h1        1 MOL      0.038688
    127 H53         6.9980   -0.7590   -3.6350 hc        1 MOL      0.028377
    128 H54         6.9890   -2.4630   -3.2910 hc        1 MOL      0.028377
    129 H55         8.6330   -3.5240   -1.6700 ha        1 MOL      0.124366
    130 H56         9.0610    0.4560   -3.3100 ha        1 MOL      0.124366
    131 H57        11.1440   -3.5890   -1.2510 ha        1 MOL      0.090556
    132 H58        11.5300    0.3170   -2.8490 ha        1 MOL      0.090556
    133 H59        12.5610   -1.7670   -1.9900 ha        1 MOL      0.113961
    134 N12         5.9960    1.2270   -1.7600 n         1 MOL     -0.085396
    135 C45         6.0690    2.6270   -1.2720 c3        1 MOL     -0.060386
    136 C46         5.5500    2.9650    0.1610 c         1 MOL      0.374006
    137 O20         6.0130    3.9810    0.6950 o         1 MOL     -0.511461
    138 C47         5.0830    3.3270   -2.2330 c3        1 MOL     -0.080610
    139 C48         5.0120    2.4620   -3.5440 c3        1 MOL     -0.088422
    140 C49         5.0790    1.1490   -2.8810 c3        1 MOL      0.163814
    141 H60         7.0900    2.9950   -1.4100 h1        1 MOL      0.089108
    142 H61         4.0700    3.3320   -1.8230 hc        1 MOL      0.058138
    143 H62         5.3860    4.3670   -2.3540 hc        1 MOL      0.058138
    144 H63         4.1160    2.6520   -4.1440 hc        1 MOL      0.040070
    145 H64         5.8930    2.5320   -4.1820 hc        1 MOL      0.040070
    146 H65         4.1120    0.7870   -2.5520 h1        1 MOL     -0.011034
    147 H66         5.3390    0.4510   -3.6830 h1        1 MOL     -0.011034
    148 N13         4.6650    2.1180    0.6830 n         1 MOL      0.046458
    149 C50         3.9200    2.2100    1.9160 c3        1 MOL     -0.147260
    150 C51         4.7540    1.4700    3.0120 c         1 MOL      0.521334
    151 O21         4.8640    1.9700    4.1440 o         1 MOL     -0.566383
    152 C52         2.5360    1.5450    1.7060 c3        1 MOL      0.191712
    153 C53         1.8430    2.0520    0.4790 c3        1 MOL      0.251043
    154 C54         0.4730    1.4870    0.3590 c         1 MOL      0.423593
    155 O22        -0.4170    2.0910   -0.2820 o         1 MOL     -0.692385
    156 O23         0.1880    0.3520    0.8070 o         1 MOL     -0.692385
    157 H67         4.3920    1.3220    0.1210 hn        1 MOL     -0.192487
    158 H68         3.7420    3.2320    2.2490 h1        1 MOL      0.092812
    159 H69         1.9570    1.7800    2.6020 hc        1 MOL     -0.045621
    160 H70         2.6050    0.4600    1.5950 hc        1 MOL     -0.045621
    161 H71         2.3650    1.8690   -0.4610 hc        1 MOL     -0.018872
    162 H72         1.8180    3.1460    0.5510 hc        1 MOL     -0.018872
    163 N14         5.2320    0.2370    2.7630 n         1 MOL     -0.218366
    164 C55         6.3010   -0.3610    3.6540 c3        1 MOL     -0.124083
    165 H73         6.4310    0.2660    4.5360 h1        1 MOL      0.068544
    166 H74         6.0000   -1.3620    3.9620 h1        1 MOL      0.068544
    167 H75         7.2420   -0.4170    3.1070 h1        1 MOL      0.068544
    168 H76         5.0020   -0.2420    1.9020 hn        1 MOL      0.204437
    169 Ca1        -2.1390   -0.0010   -0.1990 Ca        1 MOL      1.694889
    170 O24        -4.4110   -0.5740    1.3360 oh        1 MOL     -0.752441
    171 H77        -4.6520   -1.0250    2.1530 ho        1 MOL      0.370197
    172 H78        -4.7720    0.2990    1.4280 ho        1 MOL      0.370197
    173 O25        -1.8550    0.3340    2.6250 oh        1 MOL     -0.752441
    174 H79        -2.0580    0.2470    3.5550 ho        1 MOL      0.370197
    175 H80        -0.9030    0.2440    2.5740 ho        1 MOL      0.370197
@<TRIPOS>BOND
     1    1    2 1   
     2    1    4 1   
     3    1    5 1   
     4    1    6 1   
     5    2    3 2   
     6    2    7 1   
     7    7    8 1   
     8    7   15 1   
     9    8    9 1   
    10    8   11 1   
    11    8   16 1   
    12    9   10 2   
    13    9   19 1   
    14   11   12 1   
    15   11   17 1   
    16   11   18 1   
    17   12   13 1   
    18   12   14 1   
    19   19   20 1   
    20   19   24 1   
    21   20   21 1   
    22   20   23 1   
    23   20   25 1   
    24   21   22 2   
    25   21   29 1   
    26   23   26 1   
    27   23   27 1   
    28   23   28 1   
    29   29   30 1   
    30   29   37 1   
    31   30   31 1   
    32   30   33 1   
    33   30   38 1   
    34   31   32 2   
    35   31   41 1   
    36   33   34 1   
    37   33   39 1   
    38   33   40 1   
    39   34   35 1   
    40   34   36 1   
    41   41   42 1   
    42   41   45 1   
    43   42   43 1   
    44   42   46 1   
    45   42   47 1   
    46   43   44 2   
    47   43   48 1   
    48   48   49 1   
    49   48   56 1   
    50   49   50 1   
    51   49   52 1   
    52   49   57 1   
    53   50   51 2   
    54   50   62 1   
    55   52   53 1   
    56   52   58 1   
    57   52   59 1   
    58   53   54 1   
    59   53   55 2   
    60   54   60 1   
    61   54   61 1   
    62   62   63 1   
    63   62   66 1   
    64   63   64 1   
    65   63   67 1   
    66   63   68 1   
    67   64   65 2   
    68   64   69 1   
    69   69   70 1   
    70   69   76 1   
    71   70   71 1   
    72   70   73 1   
    73   70   77 1   
    74   71   72 2   
    75   71   83 1   
    76   73   74 1   
    77   73   75 1   
    78   73   78 1   
    79   74   80 1   
    80   74   81 1   
    81   74   82 1   
    82   75   79 1   
    83   83   84 1   
    84   83   91 1   
    85   84   85 1   
    86   84   87 1   
    87   84   92 1   
    88   85   86 2   
    89   85  102 1   
    90   87   88 1   
    91   87   89 1   
    92   87   93 1   
    93   88   90 1   
    94   88   94 1   
    95   88   95 1   
    96   89   96 1   
    97   89   97 1   
    98   89   98 1   
    99   90   99 1   
   100   90  100 1   
   101   90  101 1   
   102  102  103 1   
   103  102  110 1   
   104  103  104 1   
   105  103  106 1   
   106  103  111 1   
   107  104  105 2   
   108  104  114 1   
   109  106  107 1   
   110  106  112 1   
   111  106  113 1   
   112  107  108 1   
   113  107  109 1   
   114  114  115 1   
   115  114  125 1   
   116  115  116 1   
   117  115  118 1   
   118  115  126 1   
   119  116  117 2   
   120  116  134 1   
   121  118  119 1   
   122  118  127 1   
   123  118  128 1   
   124  119  120 ar  
   125  119  121 ar  
   126  120  122 ar  
   127  120  129 1   
   128  121  123 ar  
   129  121  130 1   
   130  122  124 ar  
   131  122  131 1   
   132  123  124 ar  
   133  123  132 1   
   134  124  133 1   
   135  134  135 1   
   136  134  140 1   
   137  135  136 1   
   138  135  138 1   
   139  135  141 1   
   140  136  137 2   
   141  136  148 1   
   142  138  139 1   
   143  138  142 1   
   144  138  143 1   
   145  139  140 1   
   146  139  144 1   
   147  139  145 1   
   148  140  146 1   
   149  140  147 1   
   150  148  149 1   
   151  148  157 1   
   152  149  150 1   
   153  149  152 1   
   154  149  158 1   
   155  150  151 2   
   156  150  163 1   
   157  152  153 1   
   158  152  159 1   
   159  152  160 1   
   160  153  154 1   
   161  153  161 1   
   162  153  162 1   
   163  154  155 1   
   164  154  156 1   
   165  163  164 1   
   166  163  168 1   
   167  164  165 1   
   168  164  166 1   
   169  164  167 1   
   170  170  171 1   
   171  170  172 1   
   172  173  174 1   
   173  173  175 1   
@<TRIPOS>SUBSTRUCTURE
     1 MOL         1 TEMP              0 ****  ****    0 ROOT
