@<TRIPOS>MOLECULE
MOL
  189   185     1     0     0
SMALL
resp


@<TRIPOS>ATOM
      1 C1         -0.5530    3.0600   -5.3660 c3        1 MOL     -0.283735
      2 C2          0.0640    2.9310   -3.9530 c         1 MOL      0.713877
      3 O1         -0.6870    3.3080   -3.0430 o         1 MOL     -0.594751
      4 H1         -1.5340    3.5280   -5.2920 hc        1 MOL      0.071763
      5 H2          0.0960    3.6740   -5.9910 hc        1 MOL      0.071763
      6 H3         -0.6550    2.0700   -5.8100 hc        1 MOL      0.071763
      7 N1          1.3000    2.5000   -3.8240 n         1 MOL     -0.778543
      8 C3          1.9190    2.1840   -2.5000 c3        1 MOL      0.066576
      9 C4          2.6460    3.2820   -1.8920 c         1 MOL      0.559624
     10 O2          3.4990    3.9740   -2.5140 o         1 MOL     -0.589206
     11 C5          2.8990    1.0280   -2.6920 c3        1 MOL     -0.025336
     12 C6          3.4090    0.3470   -1.3490 c         1 MOL      0.661114
     13 O3          3.0420    0.8680   -0.3080 o         1 MOL     -0.665896
     14 O4          4.3390   -0.4930   -1.4700 o         1 MOL     -0.665896
     15 H4          1.7890    2.2910   -4.6790 hn        1 MOL      0.396635
     16 H5          1.1900    1.7050   -1.8550 h1        1 MOL      0.094416
     17 H6          3.7140    1.3030   -3.3620 hc        1 MOL      0.008063
     18 H7          2.3090    0.3060   -3.2740 hc        1 MOL      0.008063
     19 N2          2.2420    3.6400   -0.6010 n         1 MOL     -0.457235
     20 C7          2.7490    4.9160    0.0480 c3        1 MOL      0.189420
     21 C8          3.6380    4.7290    1.2140 c         1 MOL      0.353861
     22 O5          4.4780    5.5990    1.5080 o         1 MOL     -0.552401
     23 C9          1.5180    5.8850    0.3260 c3        1 MOL     -0.186585
     24 C10         0.5400    6.2880   -0.7720 c3        1 MOL      0.231432
     25 C11         1.1140    7.3060   -1.8400 c3        1 MOL     -0.257411
     26 C12         1.9230    6.5880   -2.8050 c3        1 MOL      0.217148
     27 N3          2.1510    7.4320   -4.0170 n4        1 MOL     -0.543842
     28 H8          1.6980    3.0270   -0.0100 hn        1 MOL      0.330047
     29 H9          3.4590    5.4100   -0.6150 h1        1 MOL      0.043405
     30 H10         2.0020    6.7760    0.7200 hc        1 MOL      0.036135
     31 H11         0.9220    5.4010    1.1020 hc        1 MOL      0.036135
     32 H12        -0.3000    6.7540   -0.2600 hc        1 MOL     -0.008411
     33 H13         0.1880    5.4130   -1.3260 hc        1 MOL     -0.008411
     34 H14         1.6630    8.0960   -1.3290 hc        1 MOL      0.054940
     35 H15         0.2190    7.7090   -2.3280 hc        1 MOL      0.054940
     36 H16         1.3240    5.7220   -3.0900 hx        1 MOL      0.088639
     37 H17         2.8530    6.2050   -2.3720 hx        1 MOL      0.088639
     38 H18         2.7530    6.9950   -4.6950 hn        1 MOL      0.358983
     39 H19         1.2700    7.6510   -4.4600 hn        1 MOL      0.358983
     40 H20         2.5960    8.3210   -3.8010 hn        1 MOL      0.358983
     41 N4          3.6510    3.5500    1.8540 n         1 MOL     -0.108303
     42 C13         4.5160    3.1480    2.9840 c3        1 MOL     -0.103914
     43 C14         5.5720    2.1300    2.5500 c         1 MOL      0.550746
     44 O6          6.4150    1.6950    3.3540 o         1 MOL     -0.531776
     45 C15         3.7840    2.6550    4.3320 c3        1 MOL     -0.155545
     46 C16         2.9630    1.3870    4.2240 c         1 MOL      0.735734
     47 O7          2.3170    0.9440    5.2100 o         1 MOL     -0.691216
     48 O8          2.9670    0.7990    3.1210 o         1 MOL     -0.691216
     49 H21         2.8330    3.0250    1.6220 hn        1 MOL      0.142291
     50 H22         5.1180    3.9750    3.3540 h1        1 MOL      0.110956
     51 H23         3.0130    3.3540    4.6410 hc        1 MOL      0.039272
     52 H24         4.4440    2.5250    5.1950 hc        1 MOL      0.039272
     53 N5          5.6860    1.7970    1.2720 n         1 MOL     -0.392250
     54 C17         6.9720    1.2750    0.6500 c3        1 MOL     -0.098428
     55 C18         7.3880   -0.1410    0.9850 c         1 MOL      0.475694
     56 O9          8.5960   -0.3310    1.0490 o         1 MOL     -0.577097
     57 H25         4.9280    2.0160    0.6450 hn        1 MOL      0.269801
     58 H26         7.8430    1.8690    0.9300 h1        1 MOL      0.085559
     59 H27         6.9000    1.3020   -0.4350 h1        1 MOL      0.085559
     60 N6          6.4740   -1.0490    1.1900 n         1 MOL     -0.063644
     61 C19         6.7950   -2.4640    1.4470 c3        1 MOL     -0.115300
     62 C20         6.8200   -3.2220    0.1260 c         1 MOL      0.482696
     63 O10         7.2030   -4.3820    0.1740 o         1 MOL     -0.539349
     64 C21         5.7570   -3.0960    2.3740 c3        1 MOL     -0.123861
     65 C22         4.3910   -2.4380    2.1790 c         1 MOL      0.627654
     66 O11         3.8920   -2.2610    1.0400 o         1 MOL     -0.647545
     67 O12         3.7610   -2.0170    3.1380 o         1 MOL     -0.647545
     68 H28         5.4930   -0.7990    1.1150 hn        1 MOL      0.114668
     69 H29         7.7790   -2.4970    1.9050 h1        1 MOL      0.127399
     70 H30         5.9720   -2.8550    3.4120 hc        1 MOL      0.061573
     71 H31         5.7120   -4.1810    2.2920 hc        1 MOL      0.061573
     72 N7          6.3950   -2.7220   -1.0120 n         1 MOL     -0.379244
     73 C23         6.1710   -3.4810   -2.2080 c3        1 MOL     -0.011471
     74 C24         4.8810   -4.2700   -2.1200 c         1 MOL      0.433727
     75 O13         4.8340   -5.3070   -2.7770 o         1 MOL     -0.564596
     76 H32         5.9310   -1.8260   -1.0480 hn        1 MOL      0.261013
     77 H33         6.9610   -4.2110   -2.3790 h1        1 MOL      0.082270
     78 H34         6.1200   -2.9050   -3.1380 h1        1 MOL      0.082270
     79 N8          3.8530   -3.8230   -1.3610 n         1 MOL     -0.085521
     80 C25         2.5440   -4.4360   -1.2280 c3        1 MOL     -0.112038
     81 C26         1.4480   -3.3640   -1.2360 c         1 MOL      0.485058
     82 O14         1.6530   -2.2560   -0.7680 o         1 MOL     -0.502216
     83 C27         2.4590   -5.4060   -0.0410 c3        1 MOL      0.504770
     84 C28         3.3480   -6.6290   -0.1320 c3        1 MOL     -0.396166
     85 O15         2.6840   -4.6760    1.0980 oh        1 MOL     -0.616602
     86 H35         3.9990   -3.0020   -0.7820 hn        1 MOL      0.036542
     87 H36         2.3730   -5.0360   -2.1220 h1        1 MOL      0.049105
     88 H37         1.4490   -5.8240   -0.1430 h1        1 MOL     -0.061133
     89 H38         3.3510   -4.0290    0.8410 ho        1 MOL      0.385821
     90 H39         3.0870   -7.2170   -1.0090 hc        1 MOL      0.098738
     91 H40         4.3700   -6.2660   -0.3060 hc        1 MOL      0.098738
     92 H41         3.2960   -7.2880    0.7330 hc        1 MOL      0.098738
     93 N9          0.3650   -3.6350   -1.9170 n         1 MOL     -0.492923
     94 C29        -0.8100   -2.7320   -1.9760 c3        1 MOL     -0.007682
     95 C30        -2.0190   -3.4180   -1.2780 c         1 MOL      0.423837
     96 O16        -2.4230   -4.5990   -1.5300 o         1 MOL     -0.544516
     97 C31        -1.1170   -2.3390   -3.3730 c3        1 MOL      0.170518
     98 C32        -0.1420   -1.4310   -4.0840 c3        1 MOL      0.046991
     99 C33        -2.5730   -1.7930   -3.5470 c3        1 MOL     -0.347162
    100 C34        -0.0350   -1.6700   -5.6090 c3        1 MOL     -0.099688
    101 H42         0.3520   -4.5010   -2.4230 hn        1 MOL      0.305676
    102 H43        -0.6360   -1.8160   -1.4170 h1        1 MOL      0.113492
    103 H44        -1.2280   -3.2410   -3.9650 hc        1 MOL      0.014140
    104 H45         0.8440   -1.5760   -3.6290 hc        1 MOL      0.018181
    105 H46        -0.3840   -0.3820   -3.9390 hc        1 MOL      0.018181
    106 H47        -2.7530   -0.9600   -2.8780 hc        1 MOL      0.061487
    107 H48        -2.6930   -1.4190   -4.5640 hc        1 MOL      0.061487
    108 H49        -3.3050   -2.5900   -3.3870 hc        1 MOL      0.061487
    109 H50         0.3570   -2.6590   -5.8430 hc        1 MOL      0.019504
    110 H51        -1.0220   -1.5190   -6.0430 hc        1 MOL      0.019504
    111 H52         0.6310   -0.9930   -6.1570 hc        1 MOL      0.019504
    112 N10        -2.6650   -2.6910   -0.3590 n         1 MOL     -0.050247
    113 C35        -3.8890   -2.9650    0.4320 c3        1 MOL      0.049101
    114 C36        -5.2000   -2.5420   -0.2780 c         1 MOL      0.366027
    115 O17        -5.2140   -1.7750   -1.2480 o         1 MOL     -0.398278
    116 C37        -3.7500   -2.2900    1.7580 c3        1 MOL      0.049163
    117 C38        -2.3800   -2.5030    2.4240 c3        1 MOL     -0.275984
    118 O18        -3.9000   -0.9280    1.6060 oh        1 MOL     -0.171509
    119 H53        -2.3230   -1.7400   -0.3540 hn        1 MOL      0.052262
    120 H54        -3.8830   -4.0620    0.4840 h1        1 MOL      0.061792
    121 H55        -4.4490   -2.7320    2.4640 h1        1 MOL      0.017450
    122 H56        -3.6430   -0.4570    2.4080 ho        1 MOL      0.284331
    123 H57        -2.0090   -3.5040    2.2060 hc        1 MOL      0.072500
    124 H58        -1.5960   -1.8030    2.1260 hc        1 MOL      0.072500
    125 H59        -2.4870   -2.3830    3.4940 hc        1 MOL      0.072500
    126 N11        -6.3130   -2.9900    0.2820 n         1 MOL     -0.292643
    127 C39        -7.6880   -2.5630   -0.0330 c3        1 MOL     -0.087654
    128 C40        -7.8080   -1.0460   -0.0080 c         1 MOL      0.384868
    129 O19        -8.3750   -0.5370   -0.9500 o         1 MOL     -0.484597
    130 C41        -8.7900   -3.1310    0.8510 c3        1 MOL      0.237866
    131 C42        -9.3630   -4.4730    0.3890 c3        1 MOL     -0.281561
    132 O20        -8.3080   -3.3790    2.1890 oh        1 MOL     -0.601475
    133 H60        -6.1860   -3.6200    1.0530 hn        1 MOL      0.279084
    134 H61        -7.9210   -2.8780   -1.0470 h1        1 MOL      0.140357
    135 H62        -9.5900   -2.3840    0.8920 h1        1 MOL      0.058941
    136 H63        -9.0590   -3.1620    2.7390 ho        1 MOL      0.393646
    137 H64       -10.0950   -4.7870    1.1280 hc        1 MOL      0.087125
    138 H65        -9.8940   -4.4250   -0.5630 hc        1 MOL      0.087125
    139 H66        -8.5870   -5.2210    0.2650 hc        1 MOL      0.087125
    140 N12        -7.1950   -0.3920    0.9410 n         1 MOL     -0.240597
    141 C43        -7.2500    1.0380    1.1170 c3        1 MOL     -0.085932
    142 C44        -6.3150    1.7120    0.1190 c         1 MOL      0.357948
    143 O21        -6.7580    2.7020   -0.4700 o         1 MOL     -0.495192
    144 C45        -6.9570    1.3530    2.6060 c3        1 MOL      0.105360
    145 C46        -6.9740    2.8560    2.9130 c3        1 MOL      0.028876
    146 C47        -6.9800    3.0570    4.3970 c3        1 MOL     -0.058373
    147 C48        -5.7430    2.5930    5.1240 c3        1 MOL      0.031463
    148 N13        -5.5480    3.2390    6.4790 n4        1 MOL     -0.237942
    149 H67        -6.7060   -0.9860    1.5830 hn        1 MOL      0.133008
    150 H68        -8.2450    1.4400    0.9590 h1        1 MOL      0.138853
    151 H69        -5.9640    0.9460    2.7940 hc        1 MOL     -0.015095
    152 H70        -7.6760    0.8690    3.2710 hc        1 MOL     -0.015095
    153 H71        -7.8580    3.2430    2.4020 hc        1 MOL      0.026177
    154 H72        -6.0540    3.2810    2.5180 hc        1 MOL      0.026177
    155 H73        -7.8640    2.5450    4.7570 hc        1 MOL      0.030901
    156 H74        -7.1320    4.1270    4.5640 hc        1 MOL      0.030901
    157 H75        -5.0020    2.9150    4.3970 hx        1 MOL      0.067820
    158 H76        -5.7570    1.5010    5.1650 hx        1 MOL      0.067820
    159 H77        -6.3170    3.1500    7.1280 hn        1 MOL      0.289574
    160 H78        -4.6310    3.0600    6.8710 hn        1 MOL      0.289574
    161 H79        -5.6150    4.2370    6.3300 hn        1 MOL      0.289574
    162 N14        -5.1130    1.1560   -0.1690 n         1 MOL     -0.006125
    163 C49        -4.1510    1.8190   -1.1260 c3        1 MOL     -0.237181
    164 C50        -4.7140    1.8620   -2.5320 c         1 MOL      0.425489
    165 O22        -4.6620    2.8700   -3.3040 o         1 MOL     -0.548888
    166 C51        -2.8060    0.9960   -1.1100 c3        1 MOL      0.280900
    167 C52        -2.0000    1.5230    0.1450 c3        1 MOL     -0.182534
    168 C53        -0.6170    0.8840    0.3970 c         1 MOL      0.678921
    169 O23        -0.3710   -0.3510    0.3060 o         1 MOL     -0.749846
    170 O24         0.2730    1.6900    0.7840 o         1 MOL     -0.749846
    171 H80        -4.9040    0.2810    0.2820 hn        1 MOL     -0.091131
    172 H81        -3.8880    2.8110   -0.7590 h1        1 MOL      0.123489
    173 H82        -2.2710    1.2090   -2.0380 hc        1 MOL      0.015895
    174 H83        -3.0220   -0.0660   -1.0060 hc        1 MOL      0.015895
    175 H84        -2.6110    1.3440    1.0340 hc        1 MOL      0.011817
    176 H85        -1.9120    2.6070    0.0260 hc        1 MOL      0.011817
    177 N15        -5.3890    0.8070   -2.9640 n         1 MOL     -0.015622
    178 C54        -6.1090    0.7150   -4.2670 c3        1 MOL     -0.433216
    179 H86        -7.0710    1.2220   -4.1860 h1        1 MOL      0.146745
    180 H87        -5.5140    1.1880   -5.0460 h1        1 MOL      0.146745
    181 H88        -6.2720   -0.3330   -4.5190 h1        1 MOL      0.146745
    182 H89        -5.6830    0.0460   -2.3750 hn        1 MOL      0.201957
    183 Ca1         1.8870   -0.7390    1.4950 Ca        1 MOL      1.677711
    184 O25         0.0690   -0.0470    3.3190 oh        1 MOL     -0.750894
    185 H90         0.2840    0.0960    4.2350 ho        1 MOL      0.368866
    186 H91        -0.1370    0.8250    2.9810 ho        1 MOL      0.368866
    187 O26         1.0890   -3.0320    2.5610 oh        1 MOL     -0.750894
    188 H92         0.2970   -3.1040    3.0900 ho        1 MOL      0.368866
    189 H93         1.2800   -3.9280    2.2900 ho        1 MOL      0.368866
@<TRIPOS>BOND
     1    1    2 1   
     2    1    4 1   
     3    1    5 1   
     4    1    6 1   
     5    2    3 2   
     6    2    7 1   
     7    7    8 1   
     8    7   15 1   
     9    8    9 1   
    10    8   11 1   
    11    8   16 1   
    12    9   10 2   
    13    9   19 1   
    14   11   12 1   
    15   11   17 1   
    16   11   18 1   
    17   12   13 1   
    18   12   14 1   
    19   19   20 1   
    20   19   28 1   
    21   20   21 1   
    22   20   23 1   
    23   20   29 1   
    24   21   22 2   
    25   21   41 1   
    26   23   24 1   
    27   23   30 1   
    28   23   31 1   
    29   24   25 1   
    30   24   32 1   
    31   24   33 1   
    32   25   26 1   
    33   25   34 1   
    34   25   35 1   
    35   26   27 1   
    36   26   36 1   
    37   26   37 1   
    38   27   38 1   
    39   27   39 1   
    40   27   40 1   
    41   41   42 1   
    42   41   49 1   
    43   42   43 1   
    44   42   45 1   
    45   42   50 1   
    46   43   44 2   
    47   43   53 1   
    48   45   46 1   
    49   45   51 1   
    50   45   52 1   
    51   46   47 1   
    52   46   48 1   
    53   53   54 1   
    54   53   57 1   
    55   54   55 1   
    56   54   58 1   
    57   54   59 1   
    58   55   56 2   
    59   55   60 1   
    60   60   61 1   
    61   60   68 1   
    62   61   62 1   
    63   61   64 1   
    64   61   69 1   
    65   62   63 2   
    66   62   72 1   
    67   64   65 1   
    68   64   70 1   
    69   64   71 1   
    70   65   66 1   
    71   65   67 1   
    72   72   73 1   
    73   72   76 1   
    74   73   74 1   
    75   73   77 1   
    76   73   78 1   
    77   74   75 2   
    78   74   79 1   
    79   79   80 1   
    80   79   86 1   
    81   80   81 1   
    82   80   83 1   
    83   80   87 1   
    84   81   82 2   
    85   81   93 1   
    86   83   84 1   
    87   83   85 1   
    88   83   88 1   
    89   84   90 1   
    90   84   91 1   
    91   84   92 1   
    92   85   89 1   
    93   93   94 1   
    94   93  101 1   
    95   94   95 1   
    96   94   97 1   
    97   94  102 1   
    98   95   96 2   
    99   95  112 1   
   100   97   98 1   
   101   97   99 1   
   102   97  103 1   
   103   98  100 1   
   104   98  104 1   
   105   98  105 1   
   106   99  106 1   
   107   99  107 1   
   108   99  108 1   
   109  100  109 1   
   110  100  110 1   
   111  100  111 1   
   112  112  113 1   
   113  112  119 1   
   114  113  114 1   
   115  113  116 1   
   116  113  120 1   
   117  114  115 2   
   118  114  126 1   
   119  116  117 1   
   120  116  118 1   
   121  116  121 1   
   122  117  123 1   
   123  117  124 1   
   124  117  125 1   
   125  118  122 1   
   126  126  127 1   
   127  126  133 1   
   128  127  128 1   
   129  127  130 1   
   130  127  134 1   
   131  128  129 2   
   132  128  140 1   
   133  130  131 1   
   134  130  132 1   
   135  130  135 1   
   136  131  137 1   
   137  131  138 1   
   138  131  139 1   
   139  132  136 1   
   140  140  141 1   
   141  140  149 1   
   142  141  142 1   
   143  141  144 1   
   144  141  150 1   
   145  142  143 2   
   146  142  162 1   
   147  144  145 1   
   148  144  151 1   
   149  144  152 1   
   150  145  146 1   
   151  145  153 1   
   152  145  154 1   
   153  146  147 1   
   154  146  155 1   
   155  146  156 1   
   156  147  148 1   
   157  147  157 1   
   158  147  158 1   
   159  148  159 1   
   160  148  160 1   
   161  148  161 1   
   162  162  163 1   
   163  162  171 1   
   164  163  164 1   
   165  163  166 1   
   166  163  172 1   
   167  164  165 2   
   168  164  177 1   
   169  166  167 1   
   170  166  173 1   
   171  166  174 1   
   172  167  168 1   
   173  167  175 1   
   174  167  176 1   
   175  168  169 1   
   176  168  170 1   
   177  177  178 1   
   178  177  182 1   
   179  178  179 1   
   180  178  180 1   
   181  178  181 1   
   182  184  185 1   
   183  184  186 1   
   184  187  188 1   
   185  187  189 1   
@<TRIPOS>SUBSTRUCTURE
     1 MOL         1 TEMP              0 ****  ****    0 ROOT
