@<TRIPOS>MOLECULE
MOL
  186   183     1     0     0
SMALL
resp


@<TRIPOS>ATOM
      1 C1          0.5250   -2.4260    6.3180 c3        1 MOL     -0.259812
      2 C2          0.9210   -2.3350    4.8080 c         1 MOL      0.764825
      3 O1          0.1250   -2.6440    3.9230 o         1 MOL     -0.614949
      4 H1          0.5450   -1.4300    6.7590 hc        1 MOL      0.056720
      5 H2         -0.4790   -2.8410    6.4050 hc        1 MOL      0.056720
      6 H3          1.2320   -3.0690    6.8410 hc        1 MOL      0.056720
      7 N1          2.1130   -1.8660    4.4540 n         1 MOL     -0.677985
      8 C3          2.5380   -1.8940    3.0470 c3        1 MOL      0.217263
      9 C4          3.0320   -3.2810    2.7000 c         1 MOL      0.610110
     10 O2          3.7370   -3.9940    3.3810 o         1 MOL     -0.605423
     11 C5          3.6260   -0.8650    2.8560 c3        1 MOL     -0.627052
     12 C6          4.3030   -0.9860    1.4250 c         1 MOL      0.748541
     13 O3          5.5000   -0.6950    1.3170 o         1 MOL     -0.649806
     14 O4          3.6260   -1.3260    0.4160 o         1 MOL     -0.649806
     15 H4          2.7260   -1.4400    5.1360 hn        1 MOL      0.332503
     16 H5          1.7140   -1.5900    2.4070 h1        1 MOL      0.054099
     17 H6          4.4310   -1.0790    3.5480 hc        1 MOL      0.177484
     18 H7          3.2040    0.1380    2.9340 hc        1 MOL      0.177484
     19 N2          2.4080   -3.7900    1.6000 n         1 MOL     -0.013330
     20 C7          2.6230   -5.1770    1.1910 c3        1 MOL     -0.171534
     21 C8          3.2860   -5.2510   -0.2250 c         1 MOL      0.334471
     22 O5          3.5500   -6.3950   -0.6970 o         1 MOL     -0.553367
     23 C9          1.2060   -5.9450    1.2800 c3        1 MOL      0.244431
     24 C10         0.3520   -5.5500    0.1380 c3        1 MOL      0.009790
     25 C11         0.4790   -5.7120    2.6500 c3        1 MOL     -0.552702
     26 C12        -1.1410   -5.9550    0.2050 c3        1 MOL     -0.408622
     27 H8          1.7980   -3.2190    1.0410 hn        1 MOL      0.173409
     28 H9          3.2570   -5.7860    1.8510 h1        1 MOL      0.110662
     29 H10         1.4230   -7.0040    1.1260 hc        1 MOL     -0.040485
     30 H11         0.8930   -6.0880   -0.6420 hc        1 MOL      0.053187
     31 H12         0.4700   -4.4740    0.1230 hc        1 MOL      0.053187
     32 H13        -0.1160   -4.8000    2.6490 hc        1 MOL      0.130554
     33 H14        -0.2900   -6.4590    2.8140 hc        1 MOL      0.130554
     34 H15         1.1780   -5.6440    3.4840 hc        1 MOL      0.130554
     35 H16        -1.7150   -5.5540    1.0420 hc        1 MOL      0.101908
     36 H17        -1.5680   -5.6440   -0.7460 hc        1 MOL      0.101908
     37 H18        -1.1190   -7.0390    0.3150 hc        1 MOL      0.101908
     38 N3          3.5050   -4.1050   -0.9060 n         1 MOL      0.035688
     39 C13         4.3480   -4.0340   -2.1120 c3        1 MOL     -0.012970
     40 C14         5.6130   -3.1150   -2.0690 c         1 MOL      0.524472
     41 O6          6.2780   -2.9460   -3.0800 o         1 MOL     -0.547105
     42 C15         3.4240   -3.8510   -3.3680 c3        1 MOL     -0.185146
     43 C16         2.7400   -2.4480   -3.4460 c         1 MOL      0.834649
     44 O7          1.7180   -2.3340   -4.1700 o         1 MOL     -0.729436
     45 O8          3.2850   -1.4860   -2.9210 o         1 MOL     -0.729436
     46 H19         3.2800   -3.2880   -0.3630 hn        1 MOL     -0.237068
     47 H20         4.8550   -5.0010   -2.2030 h1        1 MOL      0.066646
     48 H21         2.6810   -4.6540   -3.3410 hc        1 MOL      0.034995
     49 H22         3.9700   -3.9160   -4.3160 hc        1 MOL      0.034995
     50 N4          5.9830   -2.5850   -0.9010 n         1 MOL     -0.309884
     51 C17         7.3800   -2.3100   -0.5990 c3        1 MOL     -0.352933
     52 C18         7.9030   -0.9770   -1.1830 c         1 MOL      0.630785
     53 O9          9.1230   -0.7760   -1.2680 o         1 MOL     -0.617598
     54 H23         5.2590   -2.4380   -0.2200 hn        1 MOL      0.316832
     55 H24         7.9280   -3.1270   -1.0550 h1        1 MOL      0.136331
     56 H25         7.4970   -2.2210    0.4860 h1        1 MOL      0.136331
     57 N5          6.9880   -0.0930   -1.5710 n         1 MOL     -0.218364
     58 C19         7.3080    1.2660   -1.9790 c3        1 MOL     -0.194273
     59 C20         7.3070    2.3420   -0.7960 c         1 MOL      0.458453
     60 O10         7.6460    3.5660   -0.9800 o         1 MOL     -0.538110
     61 C21         6.3220    1.7530   -3.0230 c3        1 MOL     -0.029545
     62 C22         4.8960    1.8950   -2.5340 c         1 MOL      0.621197
     63 O11         4.4660    1.2460   -1.5160 o         1 MOL     -0.690059
     64 O12         4.1440    2.7330   -3.1150 o         1 MOL     -0.690059
     65 H26         6.0230   -0.2570   -1.3460 hn        1 MOL      0.194782
     66 H27         8.3110    1.2670   -2.4070 h1        1 MOL      0.131833
     67 H28         6.2850    1.1290   -3.9190 hc        1 MOL      0.045125
     68 H29         6.6640    2.6700   -3.5060 hc        1 MOL      0.045125
     69 N6          6.9520    1.8650    0.4640 n         1 MOL     -0.279332
     70 C23         6.8840    2.5950    1.6370 c3        1 MOL     -0.051919
     71 C24         5.7550    3.6970    1.7230 c         1 MOL      0.480034
     72 O13         5.7330    4.6310    2.4820 o         1 MOL     -0.567566
     73 H30         6.5810    0.9240    0.4280 hn        1 MOL      0.246399
     74 H31         7.7520    3.2340    1.8010 h1        1 MOL      0.055388
     75 H32         6.8800    1.9700    2.5310 h1        1 MOL      0.055388
     76 N7          4.7090    3.3460    0.9880 n         1 MOL     -0.342441
     77 C25         3.4120    3.9980    1.2100 c3        1 MOL      0.211535
     78 C26         2.2650    2.9950    1.3250 c         1 MOL      0.517086
     79 O14         2.4330    1.8410    0.9110 o         1 MOL     -0.704125
     80 C27         3.0970    5.1140    0.1210 c3        1 MOL      0.173758
     81 C28         4.1090    6.2380    0.4060 c3        1 MOL     -0.257647
     82 C29         3.7470    7.5060   -0.4170 c         1 MOL      0.575947
     83 N8          4.1140    7.5960   -1.6970 n         1 MOL     -0.735284
     84 O15         3.1050    8.5070    0.0670 o         1 MOL     -0.585935
     85 H33         4.8200    2.6970    0.2270 hn        1 MOL      0.279594
     86 H34         3.2900    4.5220    2.1520 h1        1 MOL      0.028152
     87 H35         2.0620    5.3590    0.3460 hc        1 MOL     -0.034495
     88 H36         3.1180    4.7740   -0.9140 hc        1 MOL     -0.034495
     89 H37         5.0810    5.9270    0.0350 hc        1 MOL      0.081045
     90 H38         4.0730    6.4700    1.4710 hc        1 MOL      0.081045
     91 H39         4.7410    6.8980   -2.0550 hn        1 MOL      0.351010
     92 H40         3.9430    8.4680   -2.1720 hn        1 MOL      0.351010
     93 N9          1.1210    3.3550    1.9120 n         1 MOL     -0.510571
     94 C30        -0.0130    2.3870    2.2190 c3        1 MOL     -0.013244
     95 C31        -1.1740    2.9720    1.3930 c         1 MOL      0.444730
     96 O16        -1.6580    4.0380    1.6470 o         1 MOL     -0.547880
     97 C32        -0.1970    2.3170    3.7860 c3        1 MOL      0.260029
     98 C33        -1.4920    1.5620    4.0670 c3        1 MOL     -0.271395
     99 C34         0.9730    1.7110    4.5300 c3        1 MOL     -0.271395
    100 H41         1.0830    4.2260    2.4240 hn        1 MOL      0.289826
    101 H42         0.2700    1.4070    1.8260 h1        1 MOL      0.189005
    102 H43        -0.2480    3.3210    4.2080 hc        1 MOL     -0.026103
    103 H44        -1.4190    0.5070    3.7850 hc        1 MOL      0.058664
    104 H45        -1.5650    1.6840    5.1440 hc        1 MOL      0.058664
    105 H46        -2.2590    2.1310    3.5420 hc        1 MOL      0.058664
    106 H47         1.9380    2.2040    4.5150 hc        1 MOL      0.058664
    107 H48         0.7810    1.7650    5.6080 hc        1 MOL      0.058664
    108 H49         1.1470    0.6780    4.2180 hc        1 MOL      0.058664
    109 N10        -1.5600    2.2190    0.3730 n         1 MOL     -0.153867
    110 C35        -2.7800    2.4600   -0.4990 c3        1 MOL     -0.071309
    111 C36        -4.0590    2.1310    0.2350 c         1 MOL      0.470421
    112 O17        -4.1270    1.3490    1.1460 o         1 MOL     -0.298432
    113 C37        -2.5970    1.6860   -1.8000 c3        1 MOL     -0.381104
    114 C38        -3.4590    2.2390   -2.9330 c         1 MOL      0.650847
    115 N11        -2.8960    2.8700   -3.9050 n         1 MOL     -0.669993
    116 O18        -4.7100    1.9690   -2.9560 o         1 MOL     -0.569716
    117 H50        -1.1650    1.3010    0.2620 hn        1 MOL      0.125848
    118 H51        -2.8390    3.5370   -0.6440 h1        1 MOL      0.092056
    119 H52        -2.7320    0.6100   -1.7260 hc        1 MOL      0.151153
    120 H53        -1.5370    1.7830   -2.0040 hc        1 MOL      0.151153
    121 H54        -1.9690    3.2190   -3.7240 hn        1 MOL      0.347353
    122 H55        -3.4370    3.2150   -4.6790 hn        1 MOL      0.347353
    123 N12        -5.1820    2.6720   -0.2220 n         1 MOL     -0.563931
    124 C39        -6.5810    2.2180    0.1030 c3        1 MOL      0.357957
    125 C40        -6.7500    0.6960    0.0820 c         1 MOL      0.602619
    126 O19        -7.2650    0.0350    0.9790 o         1 MOL     -0.527946
    127 C41        -7.5840    2.9040   -0.7920 c3        1 MOL     -0.272930
    128 C42        -9.0280    2.4470   -0.4780 ca        1 MOL      0.114650
    129 C43        -9.5790    2.8430    0.7700 ca        1 MOL     -0.252717
    130 C44        -9.7510    1.6160   -1.3580 ca        1 MOL     -0.252717
    131 C45       -10.8270    2.3600    1.1310 ca        1 MOL     -0.228100
    132 C46       -11.0270    1.1480   -1.0080 ca        1 MOL     -0.228100
    133 C47       -11.5830    1.5930    0.2190 ca        1 MOL      0.343024
    134 O20       -12.8140    1.1810    0.4550 oh        1 MOL     -0.502891
    135 H56        -5.0320    3.1610   -1.0870 hn        1 MOL      0.259944
    136 H57        -6.7590    2.5660    1.1240 h1        1 MOL     -0.018334
    137 H58        -7.2040    2.6090   -1.7680 hc        1 MOL      0.085040
    138 H59        -7.5920    3.9810   -0.6120 hc        1 MOL      0.085040
    139 H60        -8.9930    3.4680    1.4360 ha        1 MOL      0.167538
    140 H61        -9.2760    1.2780   -2.2690 ha        1 MOL      0.167538
    141 H62       -11.2200    2.4610    2.1300 ha        1 MOL      0.148741
    142 H63       -11.5420    0.4840   -1.6840 ha        1 MOL      0.148741
    143 H64       -13.1050    0.7240   -0.3390 ho        1 MOL      0.359385
    144 N13        -6.2710    0.1350   -1.0540 n         1 MOL     -0.428889
    145 C48        -6.3170   -1.2910   -1.3560 c3        1 MOL     -0.053366
    146 C49        -5.6080   -2.1460   -0.3120 c         1 MOL      0.266016
    147 O21        -5.8650   -3.3510   -0.1100 o         1 MOL     -0.509096
    148 C50        -5.8390   -1.4700   -2.7740 c3        1 MOL      0.188771
    149 C51        -5.9060   -2.8830   -3.3120 c3        1 MOL     -0.303691
    150 C52        -5.3850   -2.9580   -4.7970 c         1 MOL      0.724680
    151 O22        -4.3460   -2.3790   -5.1450 o         1 MOL     -0.738854
    152 O23        -6.1610   -3.4970   -5.5940 o         1 MOL     -0.738854
    153 H65        -6.1080    0.7700   -1.8300 hn        1 MOL      0.243086
    154 H66        -7.3390   -1.6880   -1.4170 h1        1 MOL      0.072276
    155 H67        -4.7860   -1.2020   -2.6740 hc        1 MOL     -0.002220
    156 H68        -6.4550   -0.8400   -3.4250 hc        1 MOL     -0.002220
    157 H69        -6.9100   -3.2690   -3.1580 hc        1 MOL      0.040752
    158 H70        -5.2140   -3.4680   -2.7080 hc        1 MOL      0.040752
    159 N14        -4.5790   -1.5420    0.2680 n         1 MOL      0.184500
    160 C53        -3.8390   -2.1100    1.3900 c3        1 MOL     -0.157620
    161 C54        -4.3830   -1.9310    2.7660 c         1 MOL      0.478730
    162 O24        -4.3540   -2.7900    3.6340 o         1 MOL     -0.537347
    163 C55        -2.4350   -1.5790    1.2190 c3        1 MOL      0.141897
    164 C56        -1.6170   -2.2330    0.0850 c3        1 MOL     -0.195176
    165 C57        -0.3330   -1.5170   -0.3210 c         1 MOL      0.638999
    166 O25         0.6420   -2.0840   -0.7570 o         1 MOL     -0.704468
    167 O26        -0.0950   -0.3470    0.0540 o         1 MOL     -0.704468
    168 H71        -4.4160   -0.5740    0.0240 hn        1 MOL     -0.027677
    169 H72        -3.8830   -3.1770    1.1720 h1        1 MOL      0.081025
    170 H73        -1.9540   -1.7340    2.1890 hc        1 MOL      0.004029
    171 H74        -2.4070   -0.5120    0.9930 hc        1 MOL      0.004029
    172 H75        -2.2810   -2.5410   -0.7170 hc        1 MOL      0.083723
    173 H76        -1.2740   -3.1560    0.5460 hc        1 MOL      0.083723
    174 N15        -4.9920   -0.7120    2.8770 n         1 MOL     -0.104859
    175 C58        -5.6020   -0.2620    4.0800 c3        1 MOL     -0.185564
    176 H77        -5.0280    0.5690    4.4890 h1        1 MOL      0.061799
    177 H78        -6.6190    0.0680    3.8710 h1        1 MOL      0.061799
    178 H79        -5.6250   -1.0780    4.8030 h1        1 MOL      0.061799
    179 H80        -4.8910    0.0060    2.1780 hn        1 MOL      0.034477
    180 Ca1         2.1110    0.1400   -1.1620 Ca        1 MOL      1.795010
    181 O27         0.3410    0.0140   -3.4260 oh        1 MOL     -0.917338
    182 H81         0.6060   -0.7950   -3.8590 ho        1 MOL      0.423338
    183 H82        -0.5570    0.1720   -3.7390 ho        1 MOL      0.423338
    184 O28         1.4370    2.4890   -2.3010 oh        1 MOL     -0.917338
    185 H83         0.8490    2.8640   -2.9550 ho        1 MOL      0.423338
    186 H84         2.2890    2.9000   -2.4780 ho        1 MOL      0.423338
@<TRIPOS>BOND
     1    1    2 1   
     2    1    4 1   
     3    1    5 1   
     4    1    6 1   
     5    2    3 2   
     6    2    7 1   
     7    7    8 1   
     8    7   15 1   
     9    8    9 1   
    10    8   11 1   
    11    8   16 1   
    12    9   10 2   
    13    9   19 1   
    14   11   12 1   
    15   11   17 1   
    16   11   18 1   
    17   12   13 1   
    18   12   14 1   
    19   19   20 1   
    20   19   27 1   
    21   20   21 1   
    22   20   23 1   
    23   20   28 1   
    24   21   22 2   
    25   21   38 1   
    26   23   24 1   
    27   23   25 1   
    28   23   29 1   
    29   24   26 1   
    30   24   30 1   
    31   24   31 1   
    32   25   32 1   
    33   25   33 1   
    34   25   34 1   
    35   26   35 1   
    36   26   36 1   
    37   26   37 1   
    38   38   39 1   
    39   38   46 1   
    40   39   40 1   
    41   39   42 1   
    42   39   47 1   
    43   40   41 2   
    44   40   50 1   
    45   42   43 1   
    46   42   48 1   
    47   42   49 1   
    48   43   44 1   
    49   43   45 1   
    50   50   51 1   
    51   50   54 1   
    52   51   52 1   
    53   51   55 1   
    54   51   56 1   
    55   52   53 2   
    56   52   57 1   
    57   57   58 1   
    58   57   65 1   
    59   58   59 1   
    60   58   61 1   
    61   58   66 1   
    62   59   60 2   
    63   59   69 1   
    64   61   62 1   
    65   61   67 1   
    66   61   68 1   
    67   62   63 1   
    68   62   64 1   
    69   69   70 1   
    70   69   73 1   
    71   70   71 1   
    72   70   74 1   
    73   70   75 1   
    74   71   72 2   
    75   71   76 1   
    76   76   77 1   
    77   76   85 1   
    78   77   78 1   
    79   77   80 1   
    80   77   86 1   
    81   78   79 2   
    82   78   93 1   
    83   80   81 1   
    84   80   87 1   
    85   80   88 1   
    86   81   82 1   
    87   81   89 1   
    88   81   90 1   
    89   82   83 1   
    90   82   84 2   
    91   83   91 1   
    92   83   92 1   
    93   93   94 1   
    94   93  100 1   
    95   94   95 1   
    96   94   97 1   
    97   94  101 1   
    98   95   96 2   
    99   95  109 1   
   100   97   98 1   
   101   97   99 1   
   102   97  102 1   
   103   98  103 1   
   104   98  104 1   
   105   98  105 1   
   106   99  106 1   
   107   99  107 1   
   108   99  108 1   
   109  109  110 1   
   110  109  117 1   
   111  110  111 1   
   112  110  113 1   
   113  110  118 1   
   114  111  112 2   
   115  111  123 1   
   116  113  114 1   
   117  113  119 1   
   118  113  120 1   
   119  114  115 1   
   120  114  116 2   
   121  115  121 1   
   122  115  122 1   
   123  123  124 1   
   124  123  135 1   
   125  124  125 1   
   126  124  127 1   
   127  124  136 1   
   128  125  126 2   
   129  125  144 1   
   130  127  128 1   
   131  127  137 1   
   132  127  138 1   
   133  128  129 ar  
   134  128  130 ar  
   135  129  131 ar  
   136  129  139 1   
   137  130  132 ar  
   138  130  140 1   
   139  131  133 ar  
   140  131  141 1   
   141  132  133 ar  
   142  132  142 1   
   143  133  134 1   
   144  134  143 1   
   145  144  145 1   
   146  144  153 1   
   147  145  146 1   
   148  145  148 1   
   149  145  154 1   
   150  146  147 2   
   151  146  159 1   
   152  148  149 1   
   153  148  155 1   
   154  148  156 1   
   155  149  150 1   
   156  149  157 1   
   157  149  158 1   
   158  150  151 1   
   159  150  152 1   
   160  159  160 1   
   161  159  168 1   
   162  160  161 1   
   163  160  163 1   
   164  160  169 1   
   165  161  162 2   
   166  161  174 1   
   167  163  164 1   
   168  163  170 1   
   169  163  171 1   
   170  164  165 1   
   171  164  172 1   
   172  164  173 1   
   173  165  166 1   
   174  165  167 1   
   175  174  175 1   
   176  174  179 1   
   177  175  176 1   
   178  175  177 1   
   179  175  178 1   
   180  181  182 1   
   181  181  183 1   
   182  184  185 1   
   183  184  186 1   
@<TRIPOS>SUBSTRUCTURE
     1 MOL         1 TEMP              0 ****  ****    0 ROOT
