@<TRIPOS>MOLECULE
MOL
  189   185     1     0     0
SMALL
resp


@<TRIPOS>ATOM
      1 C1         -0.1970    2.5470    5.3960 c3        1 MOL     -0.356744
      2 C2         -0.7430    2.3140    3.9470 c         1 MOL      0.685937
      3 O1         -0.0630    2.5050    2.9370 o         1 MOL     -0.621145
      4 H1          0.8300    2.9080    5.3440 hc        1 MOL      0.095586
      5 H2         -0.8170    3.2860    5.9030 hc        1 MOL      0.095586
      6 H3         -0.2230    1.6080    5.9490 hc        1 MOL      0.095586
      7 N1         -1.9160    1.7520    3.8280 n         1 MOL     -0.590806
      8 C3         -2.6170    1.4580    2.5000 c3        1 MOL      0.162553
      9 C4         -3.3090    2.6190    1.8130 c         1 MOL      0.459248
     10 O2         -4.4720    2.9700    2.0370 o         1 MOL     -0.512482
     11 C5         -3.5370    0.2580    2.7050 c3        1 MOL     -0.056142
     12 C6         -4.1440   -0.2950    1.4400 c         1 MOL      0.639031
     13 O3         -5.0450   -1.1810    1.4090 o         1 MOL     -0.654639
     14 O4         -3.6460    0.1290    0.3710 o         1 MOL     -0.654639
     15 H4         -2.3540    1.4290    4.6630 hn        1 MOL      0.314959
     16 H5         -1.8440    1.0980    1.8120 h1        1 MOL      0.074703
     17 H6         -4.2980    0.5510    3.4250 hc        1 MOL      0.014339
     18 H7         -2.9700   -0.5050    3.2340 hc        1 MOL      0.014339
     19 N2         -2.5150    3.3300    0.9630 n         1 MOL     -0.353543
     20 C7         -2.9350    4.6170    0.3750 c3        1 MOL     -0.062647
     21 C8         -3.8100    4.6560   -0.8550 c         1 MOL      0.555447
     22 O5         -4.6690    5.5860   -0.9660 o         1 MOL     -0.579655
     23 C9         -1.6140    5.3820    0.1790 c3        1 MOL     -0.022770
     24 C10        -1.6040    6.8700   -0.1600 c3        1 MOL     -0.159175
     25 C11        -1.7980    7.7770    1.0990 c3        1 MOL      0.027596
     26 C12        -1.6130    9.2640    0.6990 c3        1 MOL      0.097970
     27 N3         -2.1010   10.0260    1.8150 n4        1 MOL     -0.470662
     28 H8         -1.6540    2.9090    0.6430 hn        1 MOL      0.279442
     29 H9         -3.5520    5.1340    1.1220 h1        1 MOL      0.086417
     30 H10        -1.0640    4.9020   -0.6330 hc        1 MOL      0.069296
     31 H11        -1.0000    5.3350    1.0740 hc        1 MOL      0.069296
     32 H12        -2.4480    6.8690   -0.8460 hc        1 MOL      0.043308
     33 H13        -0.6870    7.1550   -0.6690 hc        1 MOL      0.043308
     34 H14        -1.0490    7.5150    1.8400 hc        1 MOL      0.026479
     35 H15        -2.7400    7.6650    1.6190 hc        1 MOL      0.026479
     36 H16        -2.2800    9.5020   -0.1280 hx        1 MOL      0.070894
     37 H17        -0.6040    9.5460    0.4110 hx        1 MOL      0.070894
     38 H18        -3.0210    9.6940    2.0830 hn        1 MOL      0.354826
     39 H19        -1.3930    9.9510    2.5270 hn        1 MOL      0.354826
     40 H20        -2.2350   10.9930    1.5530 hn        1 MOL      0.354826
     41 N4         -3.7740    3.5980   -1.6820 n         1 MOL     -0.345494
     42 C13        -4.8170    3.1850   -2.6040 c3        1 MOL      0.070064
     43 C14        -5.9870    2.2910   -2.0700 c         1 MOL      0.388882
     44 O6         -7.0700    2.2540   -2.7150 o         1 MOL     -0.533205
     45 C15        -4.2290    2.7610   -3.9380 c3        1 MOL     -0.293339
     46 C16        -3.0510    1.8120   -3.8230 c         1 MOL      0.753732
     47 O7         -2.9330    1.0580   -2.8170 o         1 MOL     -0.709339
     48 O8         -2.1720    1.8630   -4.7250 o         1 MOL     -0.709339
     49 H21        -3.0780    2.8830   -1.5160 hn        1 MOL      0.235297
     50 H22        -5.4280    4.0610   -2.8230 h1        1 MOL      0.080239
     51 H23        -3.8480    3.6940   -4.3520 hc        1 MOL      0.078266
     52 H24        -4.9230    2.3780   -4.6840 hc        1 MOL      0.078266
     53 N5         -5.8140    1.6340   -0.9280 n         1 MOL      0.012065
     54 C17        -6.9400    1.0360   -0.2560 c3        1 MOL     -0.247185
     55 C18        -7.4320   -0.2600   -0.8190 c         1 MOL      0.622647
     56 O9         -8.6170   -0.4690   -0.9450 o         1 MOL     -0.590505
     57 H25        -4.9050    1.5670   -0.4840 hn        1 MOL      0.025683
     58 H26        -7.8250    1.6770   -0.2490 h1        1 MOL      0.103889
     59 H27        -6.6090    0.8650    0.7600 h1        1 MOL      0.103889
     60 N6         -6.4570   -1.0470   -1.2460 n         1 MOL     -0.211350
     61 C19        -6.5440   -2.3190   -2.0010 c3        1 MOL     -0.040252
     62 C20        -6.6640   -3.5270   -1.0040 c         1 MOL      0.460369
     63 O10        -7.1710   -4.5740   -1.3630 o         1 MOL     -0.558079
     64 C21        -5.3930   -2.4220   -3.0580 c3        1 MOL     -0.238261
     65 C22        -4.0410   -2.2530   -2.5540 c         1 MOL      0.756525
     66 O11        -3.6780   -2.5080   -1.3920 o         1 MOL     -0.726004
     67 O12        -3.1570   -1.9290   -3.3970 o         1 MOL     -0.726004
     68 H28        -5.6120   -0.8440   -0.7170 hn        1 MOL      0.029540
     69 H29        -7.4530   -2.4140   -2.6000 h1        1 MOL      0.116087
     70 H30        -5.4400   -1.7230   -3.9020 hc        1 MOL      0.087128
     71 H31        -5.3630   -3.4320   -3.4740 hc        1 MOL      0.087128
     72 N7         -6.3330   -3.3310    0.2820 n         1 MOL     -0.297991
     73 C23        -6.2520   -4.3830    1.4110 c3        1 MOL     -0.050232
     74 C24        -4.8260   -4.8750    1.6370 c         1 MOL      0.478075
     75 O13        -4.6850   -5.9600    2.2350 o         1 MOL     -0.581445
     76 H32        -6.0160   -2.4050    0.5320 hn        1 MOL      0.238733
     77 H33        -6.8170   -5.2910    1.2030 h1        1 MOL      0.085317
     78 H34        -6.6980   -4.0060    2.3350 h1        1 MOL      0.085317
     79 N8         -3.8370   -4.2580    1.0440 n         1 MOL     -0.167215
     80 C25        -2.3650   -4.6840    1.0570 c3        1 MOL     -0.427263
     81 C26        -1.3920   -3.4690    1.1190 c         1 MOL      0.832668
     82 O14        -1.6430   -2.3720    0.5850 o         1 MOL     -0.685008
     83 C27        -2.0380   -5.5460   -0.1480 c3        1 MOL      0.390786
     84 C28        -2.7120   -6.9080   -0.2800 c3        1 MOL     -0.492467
     85 O15        -2.2010   -4.9030   -1.3830 oh        1 MOL     -0.615160
     86 H35        -3.9840   -3.5080    0.3900 hn        1 MOL      0.242477
     87 H36        -2.2980   -5.2880    1.9610 h1        1 MOL      0.160908
     88 H37        -0.9670   -5.7250   -0.1050 h1        1 MOL      0.035599
     89 H38        -3.0140   -4.4060   -1.2790 ho        1 MOL      0.438737
     90 H39        -2.5830   -7.5120    0.6200 hc        1 MOL      0.133687
     91 H40        -3.7860   -6.8760   -0.4600 hc        1 MOL      0.133687
     92 H41        -2.1970   -7.5720   -0.9720 hc        1 MOL      0.133687
     93 N9         -0.3160   -3.6100    1.9280 n         1 MOL     -0.599308
     94 C29         0.8150   -2.7370    2.0970 c3        1 MOL     -0.029019
     95 C30         2.0770   -3.1790    1.3880 c         1 MOL      0.468440
     96 O16         2.5780   -4.2860    1.6580 o         1 MOL     -0.564065
     97 C31         1.1540   -2.4930    3.5910 c3        1 MOL      0.554598
     98 C32        -0.1400   -2.2940    4.3890 c3        1 MOL      0.118760
     99 C33         2.0940   -1.3330    3.7040 c3        1 MOL     -0.713838
    100 C34         0.0890   -2.4110    5.9090 c3        1 MOL     -0.231544
    101 H42        -0.2720   -4.4810    2.4420 hn        1 MOL      0.286669
    102 H43         0.5570   -1.7510    1.7030 h1        1 MOL      0.129031
    103 H44         1.6150   -3.4160    3.9480 hc        1 MOL     -0.086518
    104 H45        -0.7790   -3.1430    4.1650 hc        1 MOL     -0.030024
    105 H46        -0.6320   -1.3940    4.0030 hc        1 MOL     -0.030024
    106 H47         3.0080   -1.4680    3.1360 hc        1 MOL      0.132638
    107 H48         1.5800   -0.4190    3.4030 hc        1 MOL      0.132638
    108 H49         2.6310   -1.2410    4.6500 hc        1 MOL      0.132638
    109 H50        -0.7530   -2.0260    6.4830 hc        1 MOL      0.045353
    110 H51         0.3670   -3.4420    6.1310 hc        1 MOL      0.045353
    111 H52         0.9400   -1.7740    6.1700 hc        1 MOL      0.045353
    112 N10         2.5880   -2.3760    0.4790 n         1 MOL     -0.146840
    113 C35         3.8980   -2.5660   -0.1890 c3        1 MOL     -0.016531
    114 C36         5.1280   -2.0920    0.5520 c         1 MOL      0.361184
    115 O17         5.0530   -1.2390    1.4510 o         1 MOL     -0.314767
    116 C37         3.8930   -1.8520   -1.5480 c3        1 MOL      0.242645
    117 C38         2.9220   -2.2630   -2.6330 c3        1 MOL     -0.231709
    118 O18         3.6530   -0.5500   -1.3530 oh        1 MOL     -0.509100
    119 H53         2.1210   -1.4900    0.3510 hn        1 MOL      0.098049
    120 H54         4.0890   -3.6180   -0.4140 h1        1 MOL      0.060940
    121 H55         4.8990   -1.9580   -1.9330 h1        1 MOL      0.006488
    122 H56         2.7070   -0.4820   -1.2140 ho        1 MOL      0.413716
    123 H57         2.1190   -2.9170   -2.2850 hc        1 MOL      0.049637
    124 H58         2.5530   -1.4070   -3.2060 hc        1 MOL      0.049637
    125 H59         3.5480   -2.8740   -3.2890 hc        1 MOL      0.049637
    126 N11         6.3790   -2.4990    0.1940 n         1 MOL     -0.331859
    127 C39         7.5640   -1.7350    0.7710 c3        1 MOL     -0.335732
    128 C40         7.7170   -0.2610    0.3810 c         1 MOL      0.351604
    129 O19         8.1710    0.4970    1.2730 o         1 MOL     -0.454286
    130 C41         8.8900   -2.3940    0.1960 c3        1 MOL      0.406297
    131 C42         9.2090   -3.8060    0.5490 c3        1 MOL     -0.367024
    132 O20         9.0060   -2.2450   -1.1790 oh        1 MOL     -0.668795
    133 H60         6.5890   -3.0710   -0.6150 hn        1 MOL      0.283317
    134 H61         7.5410   -1.9630    1.8380 h1        1 MOL      0.217606
    135 H62         9.7150   -1.7800    0.5620 h1        1 MOL      0.013480
    136 H63         9.9240   -2.3460   -1.4310 ho        1 MOL      0.413584
    137 H64         8.4110   -4.4850    0.2320 hc        1 MOL      0.101066
    138 H65        10.1320   -4.0370    0.0200 hc        1 MOL      0.101066
    139 H66         9.4310   -3.8440    1.6150 hc        1 MOL      0.101066
    140 N12         7.1290    0.1840   -0.7480 n         1 MOL     -0.136425
    141 C43         6.9070    1.5870   -1.0690 c3        1 MOL     -0.153808
    142 C44         5.9770    2.3250   -0.1300 c         1 MOL      0.345475
    143 O21         6.2760    3.4190    0.2890 o         1 MOL     -0.461289
    144 C45         6.3250    1.6650   -2.5530 c3        1 MOL     -0.064521
    145 C46         7.0120    0.7700   -3.5710 c3        1 MOL     -0.208664
    146 C47         8.4030    1.2850   -4.0680 c3        1 MOL     -0.074161
    147 C48         8.8420    0.3490   -5.2000 c3        1 MOL      0.019394
    148 N13        10.2070    0.7550   -5.6050 n4        1 MOL     -0.318117
    149 H67         6.8340   -0.5790   -1.3400 hn        1 MOL      0.238303
    150 H68         7.8900    2.0550   -1.0340 h1        1 MOL      0.122200
    151 H69         6.3980    2.7040   -2.8980 hc        1 MOL      0.088972
    152 H70         5.2630    1.4680   -2.6360 hc        1 MOL      0.088972
    153 H71         6.3270    0.9690   -4.3980 hc        1 MOL      0.082245
    154 H72         7.0010   -0.2820   -3.3220 hc        1 MOL      0.082245
    155 H73         9.0210    1.2590   -3.1680 hc        1 MOL      0.065003
    156 H74         8.3000    2.3350   -4.3120 hc        1 MOL      0.065003
    157 H75         8.1190    0.4010   -6.0180 hx        1 MOL      0.105237
    158 H76         8.7940   -0.6800   -4.8410 hx        1 MOL      0.105237
    159 H77        10.7490    0.0990   -6.1590 hn        1 MOL      0.316948
    160 H78        10.1730    1.6250   -6.1210 hn        1 MOL      0.316948
    161 H79        10.8150    0.9330   -4.8180 hn        1 MOL      0.316948
    162 N14         4.7880    1.7200    0.2130 n         1 MOL     -0.048380
    163 C49         3.9250    2.2250    1.2690 c3        1 MOL     -0.223144
    164 C50         4.4640    2.2710    2.7160 c         1 MOL      0.417043
    165 O22         4.3400    3.2980    3.4430 o         1 MOL     -0.519011
    166 C51         2.5390    1.5520    1.2420 c3        1 MOL      0.091565
    167 C52         1.5740    1.9870    0.0440 c3        1 MOL     -0.047722
    168 C53         0.4910    1.0020   -0.3020 c         1 MOL      0.765698
    169 O23         0.7570   -0.1970   -0.5240 o         1 MOL     -0.778666
    170 O24        -0.6520    1.4010   -0.4680 o         1 MOL     -0.778666
    171 H80         4.5090    0.8790   -0.2620 hn        1 MOL      0.067227
    172 H81         3.7360    3.2840    1.0530 h1        1 MOL      0.106690
    173 H82         1.9740    1.6450    2.1680 hc        1 MOL      0.039664
    174 H83         2.7390    0.4900    1.0690 hc        1 MOL      0.039664
    175 H84         2.1940    1.9760   -0.8480 hc        1 MOL     -0.020346
    176 H85         1.2690    3.0180    0.2370 hc        1 MOL     -0.020346
    177 N15         5.2490    1.1850    3.0420 n         1 MOL     -0.019784
    178 C54         5.8210    0.9360    4.3230 c3        1 MOL     -0.251217
    179 H86         6.8490    1.2970    4.3380 h1        1 MOL      0.086224
    180 H87         5.2430    1.4560    5.0870 h1        1 MOL      0.086224
    181 H88         5.8100   -0.1360    4.5240 h1        1 MOL      0.086224
    182 H89         5.4540    0.5100    2.3180 hn        1 MOL      0.149338
    183 Ca1        -1.7270   -0.7220   -1.4290 Ca        1 MOL      1.828835
    184 O25        -0.0520   -0.0850   -3.4800 oh        1 MOL     -0.837446
    185 H90         0.8600    0.2040   -3.4120 ho        1 MOL      0.400440
    186 H91        -0.3400    0.2450   -4.3290 ho        1 MOL      0.400440
    187 O26        -0.5470   -3.0590   -2.4110 oh        1 MOL     -0.837446
    188 H92        -0.1080   -3.1340   -3.2590 ho        1 MOL      0.400440
    189 H93        -0.8600   -3.9540   -2.2290 ho        1 MOL      0.400440
@<TRIPOS>BOND
     1    1    2 1   
     2    1    4 1   
     3    1    5 1   
     4    1    6 1   
     5    2    3 2   
     6    2    7 1   
     7    7    8 1   
     8    7   15 1   
     9    8    9 1   
    10    8   11 1   
    11    8   16 1   
    12    9   10 2   
    13    9   19 1   
    14   11   12 1   
    15   11   17 1   
    16   11   18 1   
    17   12   13 1   
    18   12   14 1   
    19   19   20 1   
    20   19   28 1   
    21   20   21 1   
    22   20   23 1   
    23   20   29 1   
    24   21   22 2   
    25   21   41 1   
    26   23   24 1   
    27   23   30 1   
    28   23   31 1   
    29   24   25 1   
    30   24   32 1   
    31   24   33 1   
    32   25   26 1   
    33   25   34 1   
    34   25   35 1   
    35   26   27 1   
    36   26   36 1   
    37   26   37 1   
    38   27   38 1   
    39   27   39 1   
    40   27   40 1   
    41   41   42 1   
    42   41   49 1   
    43   42   43 1   
    44   42   45 1   
    45   42   50 1   
    46   43   44 2   
    47   43   53 1   
    48   45   46 1   
    49   45   51 1   
    50   45   52 1   
    51   46   47 1   
    52   46   48 1   
    53   53   54 1   
    54   53   57 1   
    55   54   55 1   
    56   54   58 1   
    57   54   59 1   
    58   55   56 2   
    59   55   60 1   
    60   60   61 1   
    61   60   68 1   
    62   61   62 1   
    63   61   64 1   
    64   61   69 1   
    65   62   63 2   
    66   62   72 1   
    67   64   65 1   
    68   64   70 1   
    69   64   71 1   
    70   65   66 1   
    71   65   67 1   
    72   72   73 1   
    73   72   76 1   
    74   73   74 1   
    75   73   77 1   
    76   73   78 1   
    77   74   75 2   
    78   74   79 1   
    79   79   80 1   
    80   79   86 1   
    81   80   81 1   
    82   80   83 1   
    83   80   87 1   
    84   81   82 2   
    85   81   93 1   
    86   83   84 1   
    87   83   85 1   
    88   83   88 1   
    89   84   90 1   
    90   84   91 1   
    91   84   92 1   
    92   85   89 1   
    93   93   94 1   
    94   93  101 1   
    95   94   95 1   
    96   94   97 1   
    97   94  102 1   
    98   95   96 2   
    99   95  112 1   
   100   97   98 1   
   101   97   99 1   
   102   97  103 1   
   103   98  100 1   
   104   98  104 1   
   105   98  105 1   
   106   99  106 1   
   107   99  107 1   
   108   99  108 1   
   109  100  109 1   
   110  100  110 1   
   111  100  111 1   
   112  112  113 1   
   113  112  119 1   
   114  113  114 1   
   115  113  116 1   
   116  113  120 1   
   117  114  115 2   
   118  114  126 1   
   119  116  117 1   
   120  116  118 1   
   121  116  121 1   
   122  117  123 1   
   123  117  124 1   
   124  117  125 1   
   125  118  122 1   
   126  126  127 1   
   127  126  133 1   
   128  127  128 1   
   129  127  130 1   
   130  127  134 1   
   131  128  129 2   
   132  128  140 1   
   133  130  131 1   
   134  130  132 1   
   135  130  135 1   
   136  131  137 1   
   137  131  138 1   
   138  131  139 1   
   139  132  136 1   
   140  140  141 1   
   141  140  149 1   
   142  141  142 1   
   143  141  144 1   
   144  141  150 1   
   145  142  143 2   
   146  142  162 1   
   147  144  145 1   
   148  144  151 1   
   149  144  152 1   
   150  145  146 1   
   151  145  153 1   
   152  145  154 1   
   153  146  147 1   
   154  146  155 1   
   155  146  156 1   
   156  147  148 1   
   157  147  157 1   
   158  147  158 1   
   159  148  159 1   
   160  148  160 1   
   161  148  161 1   
   162  162  163 1   
   163  162  171 1   
   164  163  164 1   
   165  163  166 1   
   166  163  172 1   
   167  164  165 2   
   168  164  177 1   
   169  166  167 1   
   170  166  173 1   
   171  166  174 1   
   172  167  168 1   
   173  167  175 1   
   174  167  176 1   
   175  168  169 1   
   176  168  170 1   
   177  177  178 1   
   178  177  182 1   
   179  178  179 1   
   180  178  180 1   
   181  178  181 1   
   182  184  185 1   
   183  184  186 1   
   184  187  188 1   
   185  187  189 1   
@<TRIPOS>SUBSTRUCTURE
     1 MOL         1 TEMP              0 ****  ****    0 ROOT
