@<TRIPOS>MOLECULE
MOL
  176   174     1     0     0
SMALL
resp


@<TRIPOS>ATOM
      1 C1          1.7350   -5.4970    5.5750 c3        1 MOL     -0.376092
      2 C2          1.4040   -4.8820    4.1850 c         1 MOL      0.672865
      3 O1          0.3960   -5.2800    3.5650 o         1 MOL     -0.624092
      4 H1          2.3890   -6.3590    5.4450 hc        1 MOL      0.105359
      5 H2          2.2370   -4.7510    6.1920 hc        1 MOL      0.105359
      6 H3          0.8130   -5.8120    6.0620 hc        1 MOL      0.105359
      7 N1          2.2440   -3.9850    3.7200 n         1 MOL     -0.511328
      8 C3          2.1810   -3.3740    2.3540 c3        1 MOL      0.114395
      9 C4          2.0270   -4.4530    1.2550 c         1 MOL      0.411385
     10 O2          2.7460   -5.4570    1.2190 o         1 MOL     -0.538084
     11 C5          3.3170   -2.4460    2.0900 c3        1 MOL     -0.108341
     12 C6          3.1750   -1.4350    0.9660 c         1 MOL      0.800464
     13 O3          2.9420   -1.8490   -0.1720 o         1 MOL     -0.766448
     14 O4          3.2550   -0.2150    1.1980 o         1 MOL     -0.766448
     15 H4          2.9370   -3.6190    4.3480 hn        1 MOL      0.312587
     16 H5          1.2760   -2.7800    2.4690 h1        1 MOL      0.062609
     17 H6          4.1930   -3.0490    1.8370 hc        1 MOL      0.041808
     18 H7          3.5400   -1.9710    3.0490 hc        1 MOL      0.041808
     19 N2          1.1720   -4.1930    0.2370 n         1 MOL     -0.140346
     20 C7          0.9130   -5.1520   -0.8130 c3        1 MOL     -0.094018
     21 C8          1.8590   -5.0760   -1.9960 c         1 MOL      0.536848
     22 O5          1.7550   -5.8060   -2.9560 o         1 MOL     -0.552921
     23 C9         -0.5920   -5.2390   -1.0720 c3        1 MOL     -0.035459
     24 C10        -1.4360   -5.7140    0.1300 c3        1 MOL      0.069717
     25 C11        -1.3000   -7.2230    0.4910 c3        1 MOL      0.034481
     26 C12        -2.0100   -7.5930    1.8000 c3        1 MOL     -0.009470
     27 N3         -1.1460   -7.4960    2.9930 n4        1 MOL     -0.274278
     28 H8          0.5780   -3.3780    0.3130 hn        1 MOL      0.199837
     29 H9          1.1400   -6.1560   -0.4380 h1        1 MOL      0.048511
     30 H10        -0.8070   -5.9600   -1.8650 hc        1 MOL      0.044361
     31 H11        -1.0290   -4.2990   -1.4260 hc        1 MOL      0.044361
     32 H12        -2.4650   -5.5520   -0.1770 hc        1 MOL     -0.007549
     33 H13        -1.2080   -5.0470    0.9700 hc        1 MOL     -0.007549
     34 H14        -0.2320   -7.4460    0.5370 hc        1 MOL      0.018534
     35 H15        -1.7370   -7.9220   -0.2270 hc        1 MOL      0.018534
     36 H16        -2.2530   -8.6550    1.8780 hx        1 MOL      0.069491
     37 H17        -2.8970   -6.9790    1.8840 hx        1 MOL      0.069491
     38 H18        -1.5890   -7.9250    3.7880 hn        1 MOL      0.296286
     39 H19        -0.2980   -7.9970    2.7860 hn        1 MOL      0.296286
     40 H20        -0.9330   -6.5380    3.2320 hn        1 MOL      0.296286
     41 N4          2.6560   -4.0360   -2.0080 n         1 MOL     -0.491560
     42 C13         3.5850   -3.9230   -3.1060 c3        1 MOL      0.244967
     43 C14         4.9660   -3.4570   -2.6190 c         1 MOL      0.236293
     44 O6          6.0240   -3.6040   -3.2900 o         1 MOL     -0.534352
     45 C15         3.1820   -2.9250   -4.2120 c3        1 MOL     -0.188616
     46 C16         2.6780   -1.6690   -3.4890 c         1 MOL      0.730178
     47 O7          1.4510   -1.6260   -3.2450 o         1 MOL     -0.762887
     48 O8          3.4270   -0.8020   -3.0260 o         1 MOL     -0.762887
     49 H21         2.5100   -3.2970   -1.3380 hn        1 MOL      0.452593
     50 H22         3.7630   -4.9080   -3.5440 h1        1 MOL      0.070897
     51 H23         2.4740   -3.4570   -4.8510 hc        1 MOL      0.057701
     52 H24         4.0390   -2.7350   -4.8460 hc        1 MOL      0.057701
     53 N5          5.1050   -2.8470   -1.4050 n         1 MOL      0.027612
     54 C17         6.3420   -2.5760   -0.7060 c3        1 MOL     -0.081283
     55 C18         6.7530   -1.1090   -0.5980 c         1 MOL      0.479278
     56 O9          7.7450   -0.7840    0.0390 o         1 MOL     -0.551009
     57 H25         4.2020   -2.7570   -0.9400 hn        1 MOL     -0.049510
     58 H26         7.1310   -3.1020   -1.2520 h1        1 MOL      0.080881
     59 H27         6.3380   -3.0770    0.2580 h1        1 MOL      0.080881
     60 N6          5.9540   -0.0980   -1.1470 n         1 MOL     -0.257145
     61 C19         6.2400    1.3090   -1.3080 c3        1 MOL      0.001543
     62 C20         6.1060    2.0950   -0.0160 c         1 MOL      0.299739
     63 O10         6.5970    3.2360   -0.0330 o         1 MOL     -0.464290
     64 C21         5.5550    1.9160   -2.4960 c3        1 MOL     -0.352762
     65 C22         4.1500    2.5210   -2.2490 c         1 MOL      0.678801
     66 N7          3.8000    3.7070   -2.7180 n         1 MOL     -0.749806
     67 O11         3.4030    1.8570   -1.5440 o         1 MOL     -0.589431
     68 H28         5.2450   -0.4260   -1.7770 hn        1 MOL      0.229770
     69 H29         7.2980    1.4110   -1.5480 h1        1 MOL      0.120943
     70 H30         5.3950    1.1470   -3.2470 hc        1 MOL      0.127012
     71 H31         6.2370    2.6490   -2.9220 hc        1 MOL      0.127012
     72 H32         4.4630    4.1850   -3.3090 hn        1 MOL      0.367735
     73 H33         2.9510    4.1130   -2.3450 hn        1 MOL      0.367735
     74 N8          5.5750    1.5150    1.0400 n         1 MOL     -0.050194
     75 C23         5.3530    2.1500    2.3020 c3        1 MOL     -0.266375
     76 C24         4.1530    3.1340    2.3380 c         1 MOL      0.540064
     77 O12         4.2240    4.0610    3.1910 o         1 MOL     -0.551954
     78 H34         5.0690    0.6590    0.8870 hn        1 MOL      0.172615
     79 H35         6.3030    2.5940    2.5800 h1        1 MOL      0.121902
     80 H36         5.1090    1.3690    3.0200 h1        1 MOL      0.121902
     81 N9          3.1300    2.9160    1.5120 n         1 MOL     -0.117061
     82 C25         1.7950    3.5330    1.4630 c3        1 MOL     -0.128990
     83 C26         0.6180    2.6100    1.1610 c         1 MOL      0.538683
     84 O13         0.9070    1.7040    0.4140 o         1 MOL     -0.477557
     85 C27         1.7160    4.6670    0.3500 c3        1 MOL      0.245837
     86 C28         2.7870    5.7650    0.5430 ca        1 MOL     -0.036632
     87 C29         4.0520    5.6560    0.0070 ca        1 MOL     -0.160298
     88 C30         2.4010    6.9520    1.2140 ca        1 MOL     -0.160298
     89 C31         5.0410    6.6480    0.2030 ca        1 MOL     -0.331999
     90 C32         3.3590    7.9650    1.3640 ca        1 MOL     -0.331999
     91 C33         4.7090    7.7660    0.9950 ca        1 MOL      0.508606
     92 O14         5.5350    8.7930    1.2000 oh        1 MOL     -0.500502
     93 H37         3.1390    2.0930    0.9360 hn        1 MOL      0.115553
     94 H38         1.5500    4.1440    2.3400 h1        1 MOL      0.055713
     95 H39         0.7870    5.2200    0.5020 hc        1 MOL     -0.069225
     96 H40         1.6160    4.3090   -0.6720 hc        1 MOL     -0.069225
     97 H41         4.3210    4.7760   -0.5550 ha        1 MOL      0.137476
     98 H42         1.4470    7.0280    1.7100 ha        1 MOL      0.137476
     99 H43         5.9950    6.5130   -0.2830 ha        1 MOL      0.156618
    100 H44         3.0890    8.8630    1.9020 ha        1 MOL      0.156618
    101 H45         5.0940    9.4490    1.7420 ho        1 MOL      0.340655
    102 N10        -0.6090    2.8350    1.5790 n         1 MOL     -0.438452
    103 C34        -1.8310    2.1820    1.1090 c3        1 MOL     -0.186948
    104 C35        -2.7850    3.2310    0.5870 c         1 MOL      0.678255
    105 O15        -2.8520    4.3090    1.1530 o         1 MOL     -0.545839
    106 C36        -2.3550    1.2570    2.2620 c3        1 MOL      0.009355
    107 C37        -2.7130    2.0530    3.5340 c3        1 MOL      0.100717
    108 C38        -1.4160    0.0660    2.5230 c3        1 MOL     -0.148218
    109 C39        -3.2310    1.1730    4.7200 c3        1 MOL     -0.267124
    110 H46        -0.8320    3.5880    2.2210 hn        1 MOL      0.305703
    111 H47        -1.4950    1.4950    0.3310 h1        1 MOL      0.185985
    112 H48        -3.3060    0.8130    1.9830 hc        1 MOL     -0.030860
    113 H49        -3.5190    2.7480    3.2870 hc        1 MOL      0.012340
    114 H50        -1.9810    2.7830    3.8750 hc        1 MOL      0.012340
    115 H51        -1.8410   -0.6690    3.2010 hc        1 MOL      0.048651
    116 H52        -1.1630   -0.4960    1.6240 hc        1 MOL      0.048651
    117 H53        -0.4560    0.3820    2.9260 hc        1 MOL      0.048651
    118 H54        -2.3240    0.7360    5.1260 hc        1 MOL      0.066569
    119 H55        -3.7370    1.7790    5.4750 hc        1 MOL      0.066569
    120 H56        -3.8470    0.3650    4.3190 hc        1 MOL      0.066569
    121 N11        -3.5180    3.0250   -0.4940 n         1 MOL     -0.480747
    122 C40        -4.8500    3.6420   -0.7370 c3        1 MOL      0.032378
    123 C41        -6.0450    2.9840   -0.0460 c         1 MOL      0.449559
    124 O16        -5.8580    1.8660    0.4690 o         1 MOL     -0.402245
    125 C42        -5.0910    3.6530   -2.2950 c3        1 MOL      0.027862
    126 O17        -5.1090    2.3170   -2.6600 oh        1 MOL     -0.497255
    127 H57        -3.3420    2.1580   -0.9830 hn        1 MOL      0.245894
    128 H58        -4.8240    4.6930   -0.4780 h1        1 MOL      0.073714
    129 H59        -4.2590    4.0910   -2.8540 h1        1 MOL      0.074279
    130 H60        -5.9940    4.1820   -2.6000 h1        1 MOL      0.074279
    131 H61        -4.2080    2.0590   -2.8710 ho        1 MOL      0.407063
    132 N12        -7.3390    3.4370   -0.1570 n         1 MOL     -0.399059
    133 C43        -8.4750    2.7180    0.3520 c3        1 MOL      0.179549
    134 C44        -8.7010    1.4060   -0.3300 c         1 MOL      0.518265
    135 O18        -9.0720    0.4760    0.3400 o         1 MOL     -0.518482
    136 C45        -9.6430    3.5870    0.2030 c3        1 MOL     -0.544387
    137 H62        -7.5270    4.3260   -0.6120 hn        1 MOL      0.261246
    138 H63        -8.1810    2.5400    1.3930 h1        1 MOL      0.095684
    139 H64        -9.5550    4.4140   -0.5110 hc        1 MOL      0.156431
    140 H65       -10.5460    3.0020    0.0600 hc        1 MOL      0.156431
    141 H66        -9.6560    4.0730    1.1690 hc        1 MOL      0.156431
    142 N13        -8.3150    1.2750   -1.6140 n         1 MOL     -0.474594
    143 C46        -8.2500    0.0830   -2.3970 c3        1 MOL      0.291225
    144 C47        -7.1930   -0.9320   -1.9060 c         1 MOL      0.360086
    145 O19        -7.5150   -2.1010   -1.8470 o         1 MOL     -0.516861
    146 C48        -8.1940    0.3770   -3.9560 c3        1 MOL     -0.338255
    147 H67        -8.0290    2.1590   -2.0110 hn        1 MOL      0.285536
    148 H68        -9.1990   -0.4520   -2.2740 h1        1 MOL      0.049645
    149 H69        -7.7970   -0.5070   -4.4660 hc        1 MOL      0.093011
    150 H70        -9.1720    0.7420   -4.2610 hc        1 MOL      0.093011
    151 H71        -7.5190    1.2230   -4.0760 hc        1 MOL      0.093011
    152 N14        -6.0460   -0.4840   -1.4180 n         1 MOL     -0.032906
    153 C49        -5.0440   -1.3510   -0.7930 c3        1 MOL     -0.120310
    154 C50        -5.4550   -1.7590    0.6430 c         1 MOL      0.494639
    155 O20        -5.2790   -2.9300    1.0520 o         1 MOL     -0.558904
    156 C51        -3.5870   -0.7410   -0.9140 c3        1 MOL      0.041532
    157 C52        -2.4750   -1.8130   -0.6690 c3        1 MOL     -0.105852
    158 C53        -1.0590   -1.2140   -0.7310 c         1 MOL      0.918208
    159 O21        -0.9170   -0.0960   -1.2860 o         1 MOL     -0.868645
    160 O22        -0.0600   -1.7800   -0.2390 o         1 MOL     -0.868645
    161 H72        -5.8360    0.5010   -1.4070 hn        1 MOL     -0.109477
    162 H73        -5.0730   -2.3330   -1.2650 h1        1 MOL      0.106410
    163 H74        -3.3820    0.1510   -0.3170 hc        1 MOL      0.030453
    164 H75        -3.5010   -0.6040   -1.9860 hc        1 MOL      0.030453
    165 H76        -2.6440   -2.6650   -1.3280 hc        1 MOL      0.023628
    166 H77        -2.6160   -2.1360    0.3670 hc        1 MOL      0.023628
    167 N15        -6.1050   -0.7610    1.2880 n         1 MOL     -0.045198
    168 C54        -6.6740   -0.9970    2.6760 c3        1 MOL     -0.244355
    169 H78        -6.0180   -1.6720    3.2270 h1        1 MOL      0.095899
    170 H79        -6.7460   -0.0470    3.2060 h1        1 MOL      0.095899
    171 H80        -7.6650   -1.4420    2.5920 h1        1 MOL      0.095899
    172 H81        -6.4250    0.0620    0.8040 hn        1 MOL      0.103500
    173 Ca1         1.5940    0.0780   -1.3220 Ca        1 MOL      1.755782
    174 O23         0.7150    2.3560   -2.6860 oh        1 MOL     -0.804930
    175 H82         0.1230    3.0260   -2.3400 ho        1 MOL      0.400964
    176 H83         0.9360    2.6680   -3.5660 ho        1 MOL      0.400964
@<TRIPOS>BOND
     1    1    2 1   
     2    1    4 1   
     3    1    5 1   
     4    1    6 1   
     5    2    3 2   
     6    2    7 1   
     7    7    8 1   
     8    7   15 1   
     9    8    9 1   
    10    8   11 1   
    11    8   16 1   
    12    9   10 2   
    13    9   19 1   
    14   11   12 1   
    15   11   17 1   
    16   11   18 1   
    17   12   13 1   
    18   12   14 1   
    19   19   20 1   
    20   19   28 1   
    21   20   21 1   
    22   20   23 1   
    23   20   29 1   
    24   21   22 2   
    25   21   41 1   
    26   23   24 1   
    27   23   30 1   
    28   23   31 1   
    29   24   25 1   
    30   24   32 1   
    31   24   33 1   
    32   25   26 1   
    33   25   34 1   
    34   25   35 1   
    35   26   27 1   
    36   26   36 1   
    37   26   37 1   
    38   27   38 1   
    39   27   39 1   
    40   27   40 1   
    41   41   42 1   
    42   41   49 1   
    43   42   43 1   
    44   42   45 1   
    45   42   50 1   
    46   43   44 2   
    47   43   53 1   
    48   45   46 1   
    49   45   51 1   
    50   45   52 1   
    51   46   47 1   
    52   46   48 1   
    53   53   54 1   
    54   53   57 1   
    55   54   55 1   
    56   54   58 1   
    57   54   59 1   
    58   55   56 2   
    59   55   60 1   
    60   60   61 1   
    61   60   68 1   
    62   61   62 1   
    63   61   64 1   
    64   61   69 1   
    65   62   63 2   
    66   62   74 1   
    67   64   65 1   
    68   64   70 1   
    69   64   71 1   
    70   65   66 1   
    71   65   67 2   
    72   66   72 1   
    73   66   73 1   
    74   74   75 1   
    75   74   78 1   
    76   75   76 1   
    77   75   79 1   
    78   75   80 1   
    79   76   77 2   
    80   76   81 1   
    81   81   82 1   
    82   81   93 1   
    83   82   83 1   
    84   82   85 1   
    85   82   94 1   
    86   83   84 2   
    87   83  102 1   
    88   85   86 1   
    89   85   95 1   
    90   85   96 1   
    91   86   87 ar  
    92   86   88 ar  
    93   87   89 ar  
    94   87   97 1   
    95   88   90 ar  
    96   88   98 1   
    97   89   91 ar  
    98   89   99 1   
    99   90   91 ar  
   100   90  100 1   
   101   91   92 1   
   102   92  101 1   
   103  102  103 1   
   104  102  110 1   
   105  103  104 1   
   106  103  106 1   
   107  103  111 1   
   108  104  105 2   
   109  104  121 1   
   110  106  107 1   
   111  106  108 1   
   112  106  112 1   
   113  107  109 1   
   114  107  113 1   
   115  107  114 1   
   116  108  115 1   
   117  108  116 1   
   118  108  117 1   
   119  109  118 1   
   120  109  119 1   
   121  109  120 1   
   122  121  122 1   
   123  121  127 1   
   124  122  123 1   
   125  122  125 1   
   126  122  128 1   
   127  123  124 2   
   128  123  132 1   
   129  125  126 1   
   130  125  129 1   
   131  125  130 1   
   132  126  131 1   
   133  132  133 1   
   134  132  137 1   
   135  133  134 1   
   136  133  136 1   
   137  133  138 1   
   138  134  135 2   
   139  134  142 1   
   140  136  139 1   
   141  136  140 1   
   142  136  141 1   
   143  142  143 1   
   144  142  147 1   
   145  143  144 1   
   146  143  146 1   
   147  143  148 1   
   148  144  145 2   
   149  144  152 1   
   150  146  149 1   
   151  146  150 1   
   152  146  151 1   
   153  152  153 1   
   154  152  161 1   
   155  153  154 1   
   156  153  156 1   
   157  153  162 1   
   158  154  155 2   
   159  154  167 1   
   160  156  157 1   
   161  156  163 1   
   162  156  164 1   
   163  157  158 1   
   164  157  165 1   
   165  157  166 1   
   166  158  159 1   
   167  158  160 1   
   168  167  168 1   
   169  167  172 1   
   170  168  169 1   
   171  168  170 1   
   172  168  171 1   
   173  174  175 1   
   174  174  176 1   
@<TRIPOS>SUBSTRUCTURE
     1 MOL         1 TEMP              0 ****  ****    0 ROOT
