@<TRIPOS>MOLECULE
MOL
  186   183     1     0     0
SMALL
resp


@<TRIPOS>ATOM
      1 C1          1.4390   -1.2250    6.3540 c3        1 MOL     -0.465994
      2 C2          1.5730   -1.3110    4.9110 c         1 MOL      0.720600
      3 O1          1.1230   -0.3650    4.2210 o         1 MOL     -0.565751
      4 H1          1.5810   -0.1910    6.6700 hc        1 MOL      0.116864
      5 H2          0.4450   -1.5610    6.6480 hc        1 MOL      0.116864
      6 H3          2.1920   -1.8550    6.8280 hc        1 MOL      0.116864
      7 N1          2.2560   -2.3040    4.4310 n         1 MOL     -0.554268
      8 C3          2.7010   -2.4190    3.0410 c3        1 MOL      0.257049
      9 C4          2.6090   -3.8670    2.4790 c         1 MOL      0.337894
     10 O2          2.9950   -4.8070    3.2270 o         1 MOL     -0.575139
     11 C5          4.1460   -1.8470    2.9580 c3        1 MOL     -0.294524
     12 C6          4.6100   -1.4420    1.5230 c         1 MOL      0.762742
     13 O3          5.6780   -0.8540    1.4350 o         1 MOL     -0.664520
     14 O4          3.9120   -1.6640    0.4810 o         1 MOL     -0.664520
     15 H4          2.5630   -3.0160    5.0780 hn        1 MOL      0.308349
     16 H5          2.0480   -1.7330    2.4980 h1        1 MOL     -0.089737
     17 H6          4.9300   -2.5000    3.3420 hc        1 MOL      0.072600
     18 H7          4.2090   -0.9280    3.5400 hc        1 MOL      0.072600
     19 N2          2.1690   -4.0150    1.2390 n         1 MOL      0.092971
     20 C7          2.0530   -5.2430    0.4530 c3        1 MOL     -0.334077
     21 C8          2.8650   -5.2950   -0.8800 c         1 MOL      0.562633
     22 O5          2.8250   -6.2750   -1.6230 o         1 MOL     -0.558777
     23 C9          0.5440   -5.6140    0.2010 c3        1 MOL      0.343135
     24 C10        -0.1720   -4.7040   -0.8320 c3        1 MOL     -0.025043
     25 C11        -0.1730   -5.5340    1.5190 c3        1 MOL     -0.207965
     26 C12        -1.4170   -5.2970   -1.3840 c3        1 MOL     -0.479200
     27 H8          1.7350   -3.1690    0.9030 hn        1 MOL      0.201926
     28 H9          2.4390   -5.9310    1.2000 h1        1 MOL      0.108086
     29 H10         0.5470   -6.6470   -0.1630 hc        1 MOL     -0.054434
     30 H11         0.3740   -4.3910   -1.7130 hc        1 MOL      0.078671
     31 H12        -0.4470   -3.7470   -0.3810 hc        1 MOL      0.078671
     32 H13        -0.2570   -4.4710    1.7400 hc        1 MOL      0.024751
     33 H14        -1.1140   -6.0890    1.5110 hc        1 MOL      0.024751
     34 H15         0.4790   -5.9670    2.2690 hc        1 MOL      0.024751
     35 H16        -1.2140   -6.2910   -1.7860 hc        1 MOL      0.124230
     36 H17        -2.1270   -5.3670   -0.5570 hc        1 MOL      0.124230
     37 H18        -1.5740   -4.6670   -2.2650 hc        1 MOL      0.124230
     38 N3          3.6360   -4.2140   -1.1890 n         1 MOL     -0.332115
     39 C13         4.4950   -4.1320   -2.4300 c3        1 MOL     -0.159983
     40 C14         5.7460   -3.2340   -2.2800 c         1 MOL      0.668022
     41 O6          6.4210   -2.9560   -3.2390 o         1 MOL     -0.558702
     42 C15         3.6210   -3.5100   -3.5140 c3        1 MOL     -0.028192
     43 C16         2.8170   -2.2100   -3.2510 c         1 MOL      0.637291
     44 O7          3.2330   -1.4200   -2.3540 o         1 MOL     -0.663249
     45 O8          1.9560   -1.8720   -4.1060 o         1 MOL     -0.663249
     46 H19         3.6640   -3.3920   -0.6060 hn        1 MOL      0.032839
     47 H20         4.9760   -5.0870   -2.6170 h1        1 MOL      0.123151
     48 H21         2.8160   -4.2190   -3.7310 hc        1 MOL      0.019898
     49 H22         4.2010   -3.4820   -4.4340 hc        1 MOL      0.019898
     50 N4          6.2210   -2.9570   -1.0270 n         1 MOL     -0.473774
     51 C17         7.5830   -2.4740   -0.8120 c3        1 MOL     -0.199369
     52 C18         7.7620   -1.0060   -1.2690 c         1 MOL      0.501680
     53 O9          8.9050   -0.5130   -1.2940 o         1 MOL     -0.608095
     54 H23         5.5540   -2.8580   -0.2690 hn        1 MOL      0.300828
     55 H24         8.2840   -3.1370   -1.3150 h1        1 MOL      0.118654
     56 H25         7.8470   -2.4490    0.2420 h1        1 MOL      0.118654
     57 N5          6.7040   -0.2950   -1.5800 n         1 MOL     -0.162223
     58 C19         6.7770    1.1140   -2.0240 c3        1 MOL     -0.110284
     59 C20         6.9710    2.0790   -0.9350 c         1 MOL      0.389773
     60 O10         7.4370    3.2020   -1.2260 o         1 MOL     -0.542980
     61 C21         5.7270    1.5490   -3.0910 c3        1 MOL     -0.089396
     62 C22         4.3030    1.5380   -2.5500 c         1 MOL      0.692280
     63 O11         4.1210    1.5210   -1.2850 o         1 MOL     -0.687222
     64 O12         3.3220    1.5430   -3.2720 o         1 MOL     -0.687222
     65 H26         5.8250   -0.7630   -1.7170 hn        1 MOL      0.225971
     66 H27         7.6530    1.1940   -2.6770 h1        1 MOL      0.105543
     67 H28         5.7990    0.8670   -3.9380 hc        1 MOL      0.043970
     68 H29         5.9750    2.5180   -3.5220 hc        1 MOL      0.043970
     69 N6          6.5980    1.7740    0.3260 n         1 MOL     -0.039200
     70 C23         6.6580    2.6830    1.4900 c3        1 MOL     -0.252253
     71 C24         5.6770    3.8080    1.4600 c         1 MOL      0.541455
     72 O13         6.0230    4.8980    1.9720 o         1 MOL     -0.583786
     73 H30         6.1600    0.8690    0.4230 hn        1 MOL      0.109025
     74 H31         7.6350    3.1580    1.4620 h1        1 MOL      0.097297
     75 H32         6.5170    2.1200    2.4100 h1        1 MOL      0.097297
     76 N7          4.5830    3.6410    0.7610 n         1 MOL     -0.196521
     77 C25         3.3430    4.5080    0.8040 c3        1 MOL     -0.234187
     78 C26         2.0710    3.7380    0.8410 c         1 MOL      0.688263
     79 O14         1.8840    2.7540    0.1470 o         1 MOL     -0.586377
     80 C27         3.3130    5.6420   -0.1760 c3        1 MOL      0.012063
     81 C28         3.1740    5.1890   -1.6120 c3        1 MOL     -0.075040
     82 C29         3.0390    6.4430   -2.5530 c         1 MOL      0.613379
     83 N8          2.7450    6.1390   -3.7950 n         1 MOL     -0.759363
     84 O15         3.2360    7.6110   -2.1990 o         1 MOL     -0.586699
     85 H33         4.4860    2.7610    0.2860 hn        1 MOL      0.208151
     86 H34         3.4440    5.0710    1.7430 h1        1 MOL      0.049818
     87 H35         4.1640    6.3230   -0.1360 hc        1 MOL      0.038959
     88 H36         2.4500    6.2610    0.0760 hc        1 MOL      0.038959
     89 H37         2.1820    4.7460   -1.5960 hc        1 MOL      0.060064
     90 H38         3.9220    4.4350   -1.8810 hc        1 MOL      0.060064
     91 H39         2.5920    5.1920   -4.1100 hn        1 MOL      0.347786
     92 H40         2.5510    6.9280   -4.3940 hn        1 MOL      0.347786
     93 N9          1.0730    4.0800    1.7220 n         1 MOL     -0.486351
     94 C30        -0.1970    3.2420    1.8850 c3        1 MOL     -0.152847
     95 C31        -1.1340    3.6640    0.8000 c         1 MOL      0.619634
     96 O16        -1.3660    4.8790    0.5870 o         1 MOL     -0.624782
     97 C32        -0.8540    3.4960    3.2580 c3        1 MOL      0.103613
     98 C33        -2.2770    3.1660    3.4820 c3        1 MOL     -0.250562
     99 C34        -0.1180    2.6900    4.3240 c3        1 MOL     -0.250562
    100 H41         1.0830    5.0020    2.1440 hn        1 MOL      0.309064
    101 H42        -0.0900    2.1620    1.7700 h1        1 MOL      0.114590
    102 H43        -0.7070    4.5320    3.5960 hc        1 MOL      0.018100
    103 H44        -2.9150    3.6510    2.7440 hc        1 MOL      0.065559
    104 H45        -2.2900    2.0780    3.3540 hc        1 MOL      0.065559
    105 H46        -2.6050    3.4650    4.4740 hc        1 MOL      0.065559
    106 H47        -0.5280    3.0020    5.2850 hc        1 MOL      0.065559
    107 H48        -0.2950    1.6200    4.2830 hc        1 MOL      0.065559
    108 H49         0.9490    2.8990    4.2960 hc        1 MOL      0.065559
    109 N10        -1.7180    2.6800    0.1360 n         1 MOL     -0.243984
    110 C35        -2.8460    2.9040   -0.8850 c3        1 MOL      0.058445
    111 C36        -4.1830    2.3690   -0.3240 c         1 MOL      0.378680
    112 O17        -4.1630    1.6760    0.6500 o         1 MOL     -0.396381
    113 C37        -2.4410    2.0310   -2.1710 c3        1 MOL     -0.186640
    114 C38        -3.1080    0.6650   -2.2700 c         1 MOL      0.649098
    115 N11        -2.5660   -0.3670   -1.6390 n         1 MOL     -0.499594
    116 O18        -4.0810    0.5020   -2.9240 o         1 MOL     -0.585082
    117 H50        -1.4800    1.7240    0.3510 hn        1 MOL      0.232735
    118 H51        -2.8540    3.9790   -1.0700 h1        1 MOL      0.056199
    119 H52        -1.3610    1.9300   -2.2620 hc        1 MOL      0.061423
    120 H53        -2.7910    2.5990   -3.0340 hc        1 MOL      0.061423
    121 H54        -1.8600   -0.0950   -0.9680 hn        1 MOL      0.262280
    122 H55        -2.7900   -1.2830   -2.0090 hn        1 MOL      0.262280
    123 N12        -5.2620    2.6020   -1.0940 n         1 MOL     -0.455015
    124 C39        -6.5930    2.1040   -0.8220 c3        1 MOL      0.308082
    125 C40        -6.7120    0.8230   -0.0760 c         1 MOL      0.467393
    126 O19        -7.5280    0.7830    0.8310 o         1 MOL     -0.601103
    127 C41        -7.2500    1.9840   -2.1760 c3        1 MOL     -0.510086
    128 C42        -8.7130    1.5210   -2.1940 ca        1 MOL      0.050242
    129 C43        -9.5940    1.9540   -1.2150 ca        1 MOL     -0.009491
    130 C44        -9.2220    0.7100   -3.2240 ca        1 MOL     -0.009491
    131 C45       -10.9570    1.5610   -1.2550 ca        1 MOL     -0.416753
    132 C46       -10.6090    0.3590   -3.3070 ca        1 MOL     -0.416753
    133 C47       -11.4910    0.7470   -2.2680 ca        1 MOL      0.424938
    134 O20       -12.8110    0.2610   -2.1950 oh        1 MOL     -0.505606
    135 H56        -5.0860    3.0720   -1.9680 hn        1 MOL      0.277570
    136 H57        -7.1310    2.8540   -0.2350 h1        1 MOL      0.014957
    137 H58        -6.6950    1.3190   -2.8460 hc        1 MOL      0.165510
    138 H59        -7.1990    2.9390   -2.7000 hc        1 MOL      0.165510
    139 H60        -9.2220    2.5830   -0.4200 ha        1 MOL      0.109865
    140 H61        -8.4330    0.2640   -3.8240 ha        1 MOL      0.109865
    141 H62       -11.5340    1.6900   -0.3500 ha        1 MOL      0.175886
    142 H63       -11.0430   -0.3730   -3.9680 ha        1 MOL      0.175886
    143 H64       -13.3080    0.5520   -1.4310 ho        1 MOL      0.339513
    144 N13        -5.9750   -0.2490   -0.3280 n         1 MOL     -0.161238
    145 C48        -6.1680   -1.5730    0.3770 c3        1 MOL      0.047007
    146 C49        -5.2230   -1.8910    1.5140 c         1 MOL      0.370182
    147 O21        -5.3780   -2.8990    2.1410 o         1 MOL     -0.514082
    148 C50        -6.2060   -2.6980   -0.7250 c3        1 MOL      0.006038
    149 C51        -4.8010   -3.0450   -1.2990 c3        1 MOL     -0.201622
    150 C52        -4.8510   -3.9200   -2.4910 c         1 MOL      0.706506
    151 O22        -4.3190   -3.5040   -3.5190 o         1 MOL     -0.735429
    152 O23        -5.3560   -5.0910   -2.4430 o         1 MOL     -0.735429
    153 H65        -5.2830   -0.1350   -1.0550 hn        1 MOL      0.108657
    154 H66        -7.1900   -1.6890    0.7410 h1        1 MOL      0.085041
    155 H67        -6.9460   -2.5140   -1.4990 hc        1 MOL      0.004092
    156 H68        -6.5180   -3.6140   -0.2200 hc        1 MOL      0.004092
    157 H69        -4.1500   -3.5110   -0.5620 hc        1 MOL      0.087634
    158 H70        -4.3430   -2.1100   -1.6410 hc        1 MOL      0.087634
    159 N14        -4.3340   -0.9710    1.8600 n         1 MOL     -0.232497
    160 C53        -3.3830   -1.0770    2.9820 c3        1 MOL     -0.009961
    161 C54        -4.0390   -0.3770    4.1900 c         1 MOL      0.376275
    162 O24        -3.3900   -0.2900    5.2480 o         1 MOL     -0.524589
    163 C55        -1.9920   -0.6820    2.6040 c3        1 MOL     -0.011316
    164 C56        -1.3630   -1.5990    1.4810 c3        1 MOL     -0.107679
    165 C57        -0.2600   -0.9110    0.7210 c         1 MOL      0.962860
    166 O25         0.7220   -1.5800    0.5150 o         1 MOL     -0.855708
    167 O26        -0.3740    0.2330    0.2510 o         1 MOL     -0.855708
    168 H71        -4.2580   -0.1830    1.2200 hn        1 MOL      0.008031
    169 H72        -3.3030   -2.0760    3.4140 h1        1 MOL      0.095683
    170 H73        -1.3330   -0.5860    3.4710 hc        1 MOL      0.075007
    171 H74        -2.0700    0.3530    2.2840 hc        1 MOL      0.075007
    172 H75        -2.1360   -1.7300    0.7220 hc        1 MOL      0.017929
    173 H76        -1.1660   -2.5740    1.9000 hc        1 MOL      0.017929
    174 N15        -5.2300    0.2030    4.1210 n         1 MOL     -0.240605
    175 C58        -5.6820    1.1300    5.0830 c3        1 MOL     -0.121750
    176 H77        -5.2110    2.0980    4.9040 h1        1 MOL      0.066184
    177 H78        -6.7640    1.2340    5.0080 h1        1 MOL      0.066184
    178 H79        -5.4180    0.7770    6.0810 h1        1 MOL      0.066184
    179 H80        -5.7250    0.0590    3.2520 hn        1 MOL      0.259608
    180 Ca1         2.3090    0.0980   -0.3890 Ca        1 MOL      1.698145
    181 O27         2.4290    0.7780    2.1520 oh        1 MOL     -0.880204
    182 H81         2.9020    1.4340    2.6600 ho        1 MOL      0.419059
    183 H82         1.8420    0.3650    2.7810 ho        1 MOL      0.419059
    184 O28         0.9250    0.5760   -2.6910 oh        1 MOL     -0.880204
    185 H83         1.0860   -0.2940   -3.0520 ho        1 MOL      0.419059
    186 H84         1.6060    1.1260   -3.0670 ho        1 MOL      0.419059
@<TRIPOS>BOND
     1    1    2 1   
     2    1    4 1   
     3    1    5 1   
     4    1    6 1   
     5    2    3 2   
     6    2    7 1   
     7    7    8 1   
     8    7   15 1   
     9    8    9 1   
    10    8   11 1   
    11    8   16 1   
    12    9   10 2   
    13    9   19 1   
    14   11   12 1   
    15   11   17 1   
    16   11   18 1   
    17   12   13 1   
    18   12   14 1   
    19   19   20 1   
    20   19   27 1   
    21   20   21 1   
    22   20   23 1   
    23   20   28 1   
    24   21   22 2   
    25   21   38 1   
    26   23   24 1   
    27   23   25 1   
    28   23   29 1   
    29   24   26 1   
    30   24   30 1   
    31   24   31 1   
    32   25   32 1   
    33   25   33 1   
    34   25   34 1   
    35   26   35 1   
    36   26   36 1   
    37   26   37 1   
    38   38   39 1   
    39   38   46 1   
    40   39   40 1   
    41   39   42 1   
    42   39   47 1   
    43   40   41 2   
    44   40   50 1   
    45   42   43 1   
    46   42   48 1   
    47   42   49 1   
    48   43   44 1   
    49   43   45 1   
    50   50   51 1   
    51   50   54 1   
    52   51   52 1   
    53   51   55 1   
    54   51   56 1   
    55   52   53 2   
    56   52   57 1   
    57   57   58 1   
    58   57   65 1   
    59   58   59 1   
    60   58   61 1   
    61   58   66 1   
    62   59   60 2   
    63   59   69 1   
    64   61   62 1   
    65   61   67 1   
    66   61   68 1   
    67   62   63 1   
    68   62   64 1   
    69   69   70 1   
    70   69   73 1   
    71   70   71 1   
    72   70   74 1   
    73   70   75 1   
    74   71   72 2   
    75   71   76 1   
    76   76   77 1   
    77   76   85 1   
    78   77   78 1   
    79   77   80 1   
    80   77   86 1   
    81   78   79 2   
    82   78   93 1   
    83   80   81 1   
    84   80   87 1   
    85   80   88 1   
    86   81   82 1   
    87   81   89 1   
    88   81   90 1   
    89   82   83 1   
    90   82   84 2   
    91   83   91 1   
    92   83   92 1   
    93   93   94 1   
    94   93  100 1   
    95   94   95 1   
    96   94   97 1   
    97   94  101 1   
    98   95   96 2   
    99   95  109 1   
   100   97   98 1   
   101   97   99 1   
   102   97  102 1   
   103   98  103 1   
   104   98  104 1   
   105   98  105 1   
   106   99  106 1   
   107   99  107 1   
   108   99  108 1   
   109  109  110 1   
   110  109  117 1   
   111  110  111 1   
   112  110  113 1   
   113  110  118 1   
   114  111  112 2   
   115  111  123 1   
   116  113  114 1   
   117  113  119 1   
   118  113  120 1   
   119  114  115 1   
   120  114  116 2   
   121  115  121 1   
   122  115  122 1   
   123  123  124 1   
   124  123  135 1   
   125  124  125 1   
   126  124  127 1   
   127  124  136 1   
   128  125  126 2   
   129  125  144 1   
   130  127  128 1   
   131  127  137 1   
   132  127  138 1   
   133  128  129 ar  
   134  128  130 ar  
   135  129  131 ar  
   136  129  139 1   
   137  130  132 ar  
   138  130  140 1   
   139  131  133 ar  
   140  131  141 1   
   141  132  133 ar  
   142  132  142 1   
   143  133  134 1   
   144  134  143 1   
   145  144  145 1   
   146  144  153 1   
   147  145  146 1   
   148  145  148 1   
   149  145  154 1   
   150  146  147 2   
   151  146  159 1   
   152  148  149 1   
   153  148  155 1   
   154  148  156 1   
   155  149  150 1   
   156  149  157 1   
   157  149  158 1   
   158  150  151 1   
   159  150  152 1   
   160  159  160 1   
   161  159  168 1   
   162  160  161 1   
   163  160  163 1   
   164  160  169 1   
   165  161  162 2   
   166  161  174 1   
   167  163  164 1   
   168  163  170 1   
   169  163  171 1   
   170  164  165 1   
   171  164  172 1   
   172  164  173 1   
   173  165  166 1   
   174  165  167 1   
   175  174  175 1   
   176  174  179 1   
   177  175  176 1   
   178  175  177 1   
   179  175  178 1   
   180  181  182 1   
   181  181  183 1   
   182  184  185 1   
   183  184  186 1   
@<TRIPOS>SUBSTRUCTURE
     1 MOL         1 TEMP              0 ****  ****    0 ROOT
