@<TRIPOS>MOLECULE
MOL
  179   176     1     0     0
SMALL
resp


@<TRIPOS>ATOM
      1 C1          1.5720    2.4800    6.1310 c3        1 MOL     -0.340358
      2 C2          1.2620    2.0740    4.7030 c         1 MOL      0.788462
      3 O1          2.2040    1.6460    3.9920 o         1 MOL     -0.611612
      4 H1          1.5370    3.5670    6.2140 hc        1 MOL      0.082927
      5 H2          0.8330    2.0420    6.8020 hc        1 MOL      0.082927
      6 H3          2.5660    2.1260    6.4030 hc        1 MOL      0.082927
      7 N1          0.0360    2.2290    4.3010 n         1 MOL     -0.647435
      8 C3         -0.3860    2.2230    2.9370 c3        1 MOL     -0.008808
      9 C4         -0.1500    3.6020    2.3340 c         1 MOL      0.773590
     10 O2         -0.3880    4.6210    2.9700 o         1 MOL     -0.606889
     11 C5         -1.8440    1.7470    2.8930 c3        1 MOL     -0.072028
     12 C6         -2.5460    1.6900    1.5750 c         1 MOL      0.750973
     13 O3         -2.0270    2.1200    0.5760 o         1 MOL     -0.739544
     14 O4         -3.6600    1.1550    1.4970 o         1 MOL     -0.739544
     15 H4         -0.7020    2.3730    4.9760 hn        1 MOL      0.342488
     16 H5          0.2470    1.5540    2.3550 h1        1 MOL      0.020366
     17 H6         -2.3630    2.4370    3.5620 hc        1 MOL      0.030984
     18 H7         -1.9770    0.7900    3.3970 hc        1 MOL      0.030984
     19 N2          0.4040    3.6400    1.1230 n         1 MOL     -0.521859
     20 C7          1.0040    4.8240    0.5220 c3        1 MOL     -0.023004
     21 C8         -0.0580    5.5560   -0.3880 c         1 MOL      0.606397
     22 O5          0.3040    6.5730   -0.9510 o         1 MOL     -0.565989
     23 C9          2.3190    4.4660   -0.2350 c3        1 MOL      0.112597
     24 C10         3.3500    5.6290   -0.2870 c3        1 MOL     -0.163498
     25 C11         4.4980    5.2740   -1.2560 c3        1 MOL      0.034099
     26 C12         5.5700    6.2830   -1.0500 c3        1 MOL      0.116985
     27 N3          6.7640    5.8910   -1.8740 n4        1 MOL     -0.491067
     28 H8          0.4500    2.8220    0.5430 hn        1 MOL      0.315904
     29 H9          1.2890    5.6470    1.1810 h1        1 MOL      0.073398
     30 H10         2.0200    4.2030   -1.2540 hc        1 MOL      0.060968
     31 H11         2.8420    3.6380    0.2330 hc        1 MOL      0.060968
     32 H12         3.7840    5.7980    0.7000 hc        1 MOL      0.048683
     33 H13         2.8480    6.5310   -0.6700 hc        1 MOL      0.048683
     34 H14         4.1620    5.2620   -2.3020 hc        1 MOL      0.013664
     35 H15         4.8040    4.2910   -0.9080 hc        1 MOL      0.013664
     36 H16         5.8080    6.2630    0.0170 hx        1 MOL      0.067528
     37 H17         5.1820    7.2940   -1.1720 hx        1 MOL      0.067528
     38 H18         7.5030    6.5180   -1.5790 hn        1 MOL      0.356615
     39 H19         7.0520    4.9340   -1.6900 hn        1 MOL      0.356615
     40 H20         6.6280    6.0230   -2.8630 hn        1 MOL      0.356615
     41 N4         -1.2870    5.0040   -0.3640 n         1 MOL     -0.358166
     42 C13        -2.3680    5.3970   -1.2810 c3        1 MOL     -0.005269
     43 C14        -3.8620    5.1630   -0.7650 c         1 MOL      0.555284
     44 O6         -4.7930    5.7010   -1.2610 o         1 MOL     -0.525672
     45 C15        -2.1720    4.8360   -2.6740 c3        1 MOL     -0.272048
     46 C16        -1.9190    3.3720   -2.7430 c         1 MOL      0.737678
     47 O7         -0.8190    2.9370   -2.6020 o         1 MOL     -0.698656
     48 O8         -2.8970    2.5720   -2.6690 o         1 MOL     -0.698656
     49 H21        -1.3670    4.1330    0.1500 hn        1 MOL      0.049527
     50 H22        -2.4330    6.4760   -1.2750 h1        1 MOL      0.101348
     51 H23        -1.3810    5.4040   -3.1610 hc        1 MOL      0.071809
     52 H24        -3.0700    5.0880   -3.2330 hc        1 MOL      0.071809
     53 N5         -3.9890    4.3820    0.2790 n         1 MOL     -0.388329
     54 C17        -5.2790    4.1990    1.0340 c3        1 MOL     -0.116501
     55 C18        -6.2950    3.2180    0.4660 c         1 MOL      0.433945
     56 O9         -7.5350    3.3250    0.7580 o         1 MOL     -0.552341
     57 H25        -3.1610    3.8730    0.5480 hn        1 MOL      0.329595
     58 H26        -5.8790    5.1020    1.1360 h1        1 MOL      0.106181
     59 H27        -5.0370    3.9050    2.0580 h1        1 MOL      0.106181
     60 N6         -5.7770    2.2550   -0.3380 n         1 MOL     -0.008901
     61 C19        -6.5260    1.1970   -1.0210 c3        1 MOL     -0.252004
     62 C20        -6.7430   -0.0430   -0.0030 c         1 MOL      0.464301
     63 O10        -7.3940   -0.9420   -0.4020 o         1 MOL     -0.489016
     64 C21        -5.8820    0.8680   -2.3870 c3        1 MOL      0.062123
     65 C22        -4.9540   -0.3130   -2.3450 c         1 MOL      0.395035
     66 N7         -5.1770   -1.3520   -3.1870 n         1 MOL     -0.557136
     67 O11        -4.0150   -0.2970   -1.6320 o         1 MOL     -0.514738
     68 H28        -4.7850    2.2860   -0.5210 hn        1 MOL      0.074833
     69 H29        -7.5380    1.5560   -1.2060 h1        1 MOL      0.137037
     70 H30        -5.3140    1.7170   -2.7800 hc        1 MOL      0.039180
     71 H31        -6.6510    0.7330   -3.1570 hc        1 MOL      0.039180
     72 H32        -5.8860   -1.3670   -3.9120 hn        1 MOL      0.297232
     73 H33        -4.4330   -2.0300   -3.2960 hn        1 MOL      0.297232
     74 N8         -6.1500   -0.0150    1.1530 n         1 MOL     -0.225202
     75 C23        -6.2190   -1.0350    2.1220 c3        1 MOL     -0.203761
     76 C24        -5.2150   -2.2260    1.8690 c         1 MOL      0.491929
     77 O12        -5.2570   -3.1700    2.5480 o         1 MOL     -0.541499
     78 H34        -5.3940    0.6550    1.2660 hn        1 MOL      0.225570
     79 H35        -7.2550   -1.2740    2.3470 h1        1 MOL      0.117713
     80 H36        -5.8540   -0.6030    3.0560 h1        1 MOL      0.117713
     81 N9         -4.3280   -2.1300    0.8580 n         1 MOL     -0.041430
     82 C25        -3.2340   -3.1410    0.6180 c3        1 MOL      0.193874
     83 C26        -1.8270   -2.5830    0.6910 c         1 MOL      0.245166
     84 O13        -1.6830   -1.4480    0.2520 o         1 MOL     -0.567719
     85 C27        -3.5110   -4.0280   -0.5890 c3        1 MOL     -0.055664
     86 C28        -4.8160   -4.7800   -0.5280 ca        1 MOL      0.155670
     87 C29        -5.9870   -4.3090   -1.1590 ca        1 MOL     -0.235902
     88 C30        -4.8790   -6.0130    0.0860 ca        1 MOL     -0.235902
     89 C31        -7.2030   -5.0600   -1.0670 ca        1 MOL     -0.253070
     90 C32        -6.0530   -6.8080    0.1660 ca        1 MOL     -0.253070
     91 C33        -7.2580   -6.2850   -0.4050 ca        1 MOL      0.343581
     92 O14        -8.4320   -6.9470   -0.1960 oh        1 MOL     -0.455553
     93 H37        -4.2620   -1.2970    0.2930 hn        1 MOL      0.113125
     94 H38        -3.1770   -3.8070    1.4790 h1        1 MOL     -0.008463
     95 H39        -2.7220   -4.7600   -0.7290 hc        1 MOL     -0.001010
     96 H40        -3.5400   -3.4350   -1.5000 hc        1 MOL     -0.001010
     97 H41        -6.0250   -3.3280   -1.6010 ha        1 MOL      0.135341
     98 H42        -4.0370   -6.2200    0.7380 ha        1 MOL      0.135341
     99 H43        -8.1090   -4.6860   -1.5230 ha        1 MOL      0.153102
    100 H44        -6.0890   -7.7650    0.6830 ha        1 MOL      0.153102
    101 H45        -8.1470   -7.6730    0.3650 ho        1 MOL      0.332648
    102 N10        -0.7890   -3.3670    0.9250 n         1 MOL     -0.176895
    103 C34         0.6050   -2.9820    0.7100 c3        1 MOL     -0.187370
    104 C35         1.4620   -4.0530    0.0500 c         1 MOL      0.515911
    105 O15         1.4130   -5.1920    0.4230 o         1 MOL     -0.527519
    106 C36         1.2860   -2.4830    2.0460 c3        1 MOL      0.093559
    107 C37         1.4260   -3.5010    3.2030 c3        1 MOL     -0.232892
    108 C38         0.6340   -1.2280    2.5760 c3        1 MOL     -0.470128
    109 C39         2.1890   -3.0540    4.5140 c3        1 MOL     -0.038650
    110 H46        -0.9680   -4.2430    1.3940 hn        1 MOL      0.252951
    111 H47         0.5780   -2.1840   -0.0300 h1        1 MOL      0.147482
    112 H48         2.3200   -2.2310    1.8200 hc        1 MOL      0.069987
    113 H49         2.0360   -4.2990    2.7810 hc        1 MOL      0.082514
    114 H50         0.4620   -3.9120    3.4910 hc        1 MOL      0.082514
    115 H51         0.4850   -0.5790    1.7160 hc        1 MOL      0.160492
    116 H52        -0.3730   -1.4160    2.9680 hc        1 MOL      0.160492
    117 H53         1.3370   -0.8340    3.3060 hc        1 MOL      0.160492
    118 H54         1.6400   -2.3160    5.1010 hc        1 MOL      0.020820
    119 H55         2.4080   -3.8780    5.2030 hc        1 MOL      0.020820
    120 H56         3.1240   -2.6080    4.2000 hc        1 MOL      0.020820
    121 N11         2.2780   -3.5470   -0.8880 n         1 MOL     -0.384448
    122 C40         3.4120   -4.2370   -1.3980 c3        1 MOL      0.120285
    123 C41         4.6210   -3.8990   -0.6020 c         1 MOL      0.442082
    124 O16         4.6240   -3.0390    0.3310 o         1 MOL     -0.381563
    125 C42         3.5440   -3.9200   -2.8760 c3        1 MOL     -0.056161
    126 O17         3.9900   -2.5600   -2.9030 oh        1 MOL     -0.520512
    127 H57         2.1020   -2.5780   -1.0970 hn        1 MOL      0.220559
    128 H58         3.1790   -5.3020   -1.3920 h1        1 MOL      0.057207
    129 H59         2.6530   -4.0500   -3.4720 h1        1 MOL      0.088001
    130 H60         4.3520   -4.5810   -3.1650 h1        1 MOL      0.088001
    131 H61         3.2090   -2.0460   -3.1050 ho        1 MOL      0.402726
    132 N12         5.7120   -4.6180   -0.7770 n         1 MOL     -0.487365
    133 C43         6.9730   -4.4060   -0.0740 c3        1 MOL      0.195057
    134 C44         7.6630   -3.1330   -0.5240 c         1 MOL      0.434994
    135 O18         8.3920   -2.5270    0.2880 o         1 MOL     -0.514885
    136 C45         7.8800   -5.6710   -0.0270 c3        1 MOL     -0.551296
    137 H62         5.6130   -5.3500   -1.4730 hn        1 MOL      0.292560
    138 H63         6.6630   -4.1600    0.9330 h1        1 MOL      0.105480
    139 H64         7.3270   -6.3340    0.6430 hc        1 MOL      0.168794
    140 H65         8.0470   -6.0070   -1.0540 hc        1 MOL      0.168794
    141 H66         8.7750   -5.5460    0.5820 hc        1 MOL      0.168794
    142 N13         7.2990   -2.5520   -1.7270 n         1 MOL     -0.383639
    143 C46         7.8100   -1.2050   -2.1100 c3        1 MOL      0.085003
    144 C47         7.2390   -0.0620   -1.2940 c         1 MOL      0.462227
    145 O19         7.9590    0.8450   -0.9960 o         1 MOL     -0.522623
    146 C48         7.3990   -1.0850   -3.5850 c3        1 MOL     -0.227754
    147 H67         6.8190   -3.1010   -2.4340 hn        1 MOL      0.274409
    148 H68         8.8990   -1.1790   -2.1020 h1        1 MOL      0.093646
    149 H69         7.8770   -1.8800   -4.1590 hc        1 MOL      0.058293
    150 H70         6.3200   -0.9760   -3.6920 hc        1 MOL      0.058293
    151 H71         7.8580   -0.1290   -3.8230 hc        1 MOL      0.058293
    152 N14         5.9590   -0.0950   -0.9050 n         1 MOL     -0.292108
    153 C49         5.3840    0.7870    0.0850 c3        1 MOL     -0.098296
    154 C50         5.8990    0.5320    1.5370 c         1 MOL      0.440059
    155 O20         6.2760    1.4130    2.3260 o         1 MOL     -0.541477
    156 C51         3.8530    0.5090    0.1210 c3        1 MOL      0.010399
    157 C52         3.0840    0.8130   -1.1760 c3        1 MOL      0.091406
    158 C53         1.5340    0.6540   -1.0990 c         1 MOL      0.730149
    159 O21         0.8780    1.4640   -0.4110 o         1 MOL     -0.748905
    160 O22         0.9320   -0.2930   -1.6610 o         1 MOL     -0.748905
    161 H72         5.4130   -0.8640   -1.2580 hn        1 MOL      0.284663
    162 H73         5.5440    1.8380   -0.1320 h1        1 MOL      0.086143
    163 H74         3.4110    1.0610    0.9430 hc        1 MOL      0.020534
    164 H75         3.7730   -0.5490    0.3770 hc        1 MOL      0.020534
    165 H76         3.4340    0.1580   -1.9830 hc        1 MOL     -0.106904
    166 H77         3.2960    1.8720   -1.3030 hc        1 MOL     -0.106904
    167 N15         6.0370   -0.7450    1.9490 n         1 MOL      0.022617
    168 C54         6.5310   -1.1720    3.2860 c3        1 MOL     -0.317484
    169 H78         6.2620   -0.4210    4.0290 h1        1 MOL      0.122291
    170 H79         6.0760   -2.1260    3.5530 h1        1 MOL      0.122291
    171 H80         7.6140   -1.2810    3.2560 h1        1 MOL      0.122291
    172 H81         5.6740   -1.4350    1.3140 hn        1 MOL      0.035359
    173 Ca1        -1.4740    0.6520   -1.3780 Ca        1 MOL      1.772963
    174 O23        -1.3690   -1.6760   -2.5160 oh        1 MOL     -0.756603
    175 H82        -1.1640   -2.5680   -2.2080 ho        1 MOL      0.372809
    176 H83        -1.7450   -1.8110   -3.3880 ho        1 MOL      0.372809
    177 O24        -1.3230    0.5220   -4.1600 oh        1 MOL     -0.756603
    178 H84        -2.0310    0.6270   -4.8000 ho        1 MOL      0.372809
    179 H85        -0.6600    0.0200   -4.6240 ho        1 MOL      0.372809
@<TRIPOS>BOND
     1    1    2 1   
     2    1    4 1   
     3    1    5 1   
     4    1    6 1   
     5    2    3 2   
     6    2    7 1   
     7    7    8 1   
     8    7   15 1   
     9    8    9 1   
    10    8   11 1   
    11    8   16 1   
    12    9   10 2   
    13    9   19 1   
    14   11   12 1   
    15   11   17 1   
    16   11   18 1   
    17   12   13 1   
    18   12   14 1   
    19   19   20 1   
    20   19   28 1   
    21   20   21 1   
    22   20   23 1   
    23   20   29 1   
    24   21   22 2   
    25   21   41 1   
    26   23   24 1   
    27   23   30 1   
    28   23   31 1   
    29   24   25 1   
    30   24   32 1   
    31   24   33 1   
    32   25   26 1   
    33   25   34 1   
    34   25   35 1   
    35   26   27 1   
    36   26   36 1   
    37   26   37 1   
    38   27   38 1   
    39   27   39 1   
    40   27   40 1   
    41   41   42 1   
    42   41   49 1   
    43   42   43 1   
    44   42   45 1   
    45   42   50 1   
    46   43   44 2   
    47   43   53 1   
    48   45   46 1   
    49   45   51 1   
    50   45   52 1   
    51   46   47 1   
    52   46   48 1   
    53   53   54 1   
    54   53   57 1   
    55   54   55 1   
    56   54   58 1   
    57   54   59 1   
    58   55   56 2   
    59   55   60 1   
    60   60   61 1   
    61   60   68 1   
    62   61   62 1   
    63   61   64 1   
    64   61   69 1   
    65   62   63 2   
    66   62   74 1   
    67   64   65 1   
    68   64   70 1   
    69   64   71 1   
    70   65   66 1   
    71   65   67 2   
    72   66   72 1   
    73   66   73 1   
    74   74   75 1   
    75   74   78 1   
    76   75   76 1   
    77   75   79 1   
    78   75   80 1   
    79   76   77 2   
    80   76   81 1   
    81   81   82 1   
    82   81   93 1   
    83   82   83 1   
    84   82   85 1   
    85   82   94 1   
    86   83   84 2   
    87   83  102 1   
    88   85   86 1   
    89   85   95 1   
    90   85   96 1   
    91   86   87 ar  
    92   86   88 ar  
    93   87   89 ar  
    94   87   97 1   
    95   88   90 ar  
    96   88   98 1   
    97   89   91 ar  
    98   89   99 1   
    99   90   91 ar  
   100   90  100 1   
   101   91   92 1   
   102   92  101 1   
   103  102  103 1   
   104  102  110 1   
   105  103  104 1   
   106  103  106 1   
   107  103  111 1   
   108  104  105 2   
   109  104  121 1   
   110  106  107 1   
   111  106  108 1   
   112  106  112 1   
   113  107  109 1   
   114  107  113 1   
   115  107  114 1   
   116  108  115 1   
   117  108  116 1   
   118  108  117 1   
   119  109  118 1   
   120  109  119 1   
   121  109  120 1   
   122  121  122 1   
   123  121  127 1   
   124  122  123 1   
   125  122  125 1   
   126  122  128 1   
   127  123  124 2   
   128  123  132 1   
   129  125  126 1   
   130  125  129 1   
   131  125  130 1   
   132  126  131 1   
   133  132  133 1   
   134  132  137 1   
   135  133  134 1   
   136  133  136 1   
   137  133  138 1   
   138  134  135 2   
   139  134  142 1   
   140  136  139 1   
   141  136  140 1   
   142  136  141 1   
   143  142  143 1   
   144  142  147 1   
   145  143  144 1   
   146  143  146 1   
   147  143  148 1   
   148  144  145 2   
   149  144  152 1   
   150  146  149 1   
   151  146  150 1   
   152  146  151 1   
   153  152  153 1   
   154  152  161 1   
   155  153  154 1   
   156  153  156 1   
   157  153  162 1   
   158  154  155 2   
   159  154  167 1   
   160  156  157 1   
   161  156  163 1   
   162  156  164 1   
   163  157  158 1   
   164  157  165 1   
   165  157  166 1   
   166  158  159 1   
   167  158  160 1   
   168  167  168 1   
   169  167  172 1   
   170  168  169 1   
   171  168  170 1   
   172  168  171 1   
   173  174  175 1   
   174  174  176 1   
   175  177  178 1   
   176  177  179 1   
@<TRIPOS>SUBSTRUCTURE
     1 MOL         1 TEMP              0 ****  ****    0 ROOT
