@<TRIPOS>MOLECULE
MOL
  186   183     1     0     0
SMALL
resp


@<TRIPOS>ATOM
      1 C1          1.0740   -2.3180    6.3390 c3        1 MOL     -0.313332
      2 C2          1.3930   -2.1480    4.8330 c         1 MOL      0.722019
      3 O1          0.4620   -1.7380    4.0420 o         1 MOL     -0.601847
      4 H1          1.1830   -1.3570    6.8430 hc        1 MOL      0.078971
      5 H2          0.0520   -2.6760    6.4570 hc        1 MOL      0.078971
      6 H3          1.7650   -3.0380    6.7770 hc        1 MOL      0.078971
      7 N1          2.6460   -2.2520    4.3830 n         1 MOL     -0.659018
      8 C3          3.0950   -1.9210    3.0220 c3        1 MOL      0.438229
      9 C4          3.3740   -3.2170    2.2630 c         1 MOL      0.436565
     10 O2          4.1720   -3.9760    2.7870 o         1 MOL     -0.608829
     11 C5          4.3080   -0.9670    2.9900 c3        1 MOL     -0.277775
     12 C6          4.7710   -0.5360    1.5360 c         1 MOL      0.724253
     13 O3          5.7570    0.1610    1.4500 o         1 MOL     -0.635623
     14 O4          4.1250   -0.9280    0.5290 o         1 MOL     -0.635623
     15 H4          3.3450   -2.2880    5.1000 hn        1 MOL      0.306937
     16 H5          2.2420   -1.5450    2.4610 h1        1 MOL     -0.060642
     17 H6          5.1900   -1.4100    3.4380 hc        1 MOL      0.051618
     18 H7          4.0570   -0.0630    3.5520 hc        1 MOL      0.051618
     19 N2          2.7270   -3.5980    1.1680 n         1 MOL     -0.076253
     20 C7          2.5600   -4.9080    0.5710 c3        1 MOL     -0.079726
     21 C8          3.1360   -5.0340   -0.8640 c         1 MOL      0.491110
     22 O5          2.9850   -5.9820   -1.6130 o         1 MOL     -0.546299
     23 C9          1.0740   -5.3980    0.7500 c3        1 MOL      0.485045
     24 C10         0.4270   -5.3900    2.1400 c3        1 MOL     -0.012833
     25 C11         0.7990   -6.8010    0.1170 c3        1 MOL     -0.273567
     26 C12         1.0890   -6.2420    3.2450 c3        1 MOL     -0.244328
     27 H8          2.1890   -2.8650    0.7350 hn        1 MOL      0.071802
     28 H9          3.1930   -5.5520    1.1870 h1        1 MOL      0.034368
     29 H10         0.4700   -4.6730    0.2230 hc        1 MOL     -0.137070
     30 H11        -0.5940   -5.7360    2.0370 hc        1 MOL      0.015981
     31 H12         0.4930   -4.3790    2.5410 hc        1 MOL      0.015981
     32 H13         0.7500   -6.7470   -0.9750 hc        1 MOL      0.036641
     33 H14         1.5830   -7.4710    0.4450 hc        1 MOL      0.036641
     34 H15        -0.1550   -7.1420    0.5180 hc        1 MOL      0.036641
     35 H16         0.4890   -6.1420    4.1510 hc        1 MOL      0.038918
     36 H17         1.0800   -7.3050    3.0420 hc        1 MOL      0.038918
     37 H18         2.1310   -5.9640    3.3670 hc        1 MOL      0.038918
     38 N3          3.8330   -3.9750   -1.2820 n         1 MOL     -0.227325
     39 C13         4.7870   -3.9100   -2.4600 c3        1 MOL      0.032558
     40 C14         6.1750   -3.3160   -2.1630 c         1 MOL      0.501626
     41 O6          7.1440   -3.5450   -2.8850 o         1 MOL     -0.529625
     42 C15         4.1070   -3.3540   -3.7650 c3        1 MOL     -0.264845
     43 C16         3.8040   -1.8510   -3.7180 c         1 MOL      0.838363
     44 O7          3.9170   -1.1760   -2.6840 o         1 MOL     -0.749695
     45 O8          3.4160   -1.2830   -4.7750 o         1 MOL     -0.749695
     46 H19         3.8700   -3.1460   -0.7050 hn        1 MOL     -0.056917
     47 H20         5.0150   -4.9630   -2.6320 h1        1 MOL      0.059157
     48 H21         3.1440   -3.8390   -3.9280 hc        1 MOL      0.064653
     49 H22         4.7800   -3.5680   -4.5960 hc        1 MOL      0.064653
     50 N4          6.2750   -2.6600   -1.0100 n         1 MOL     -0.341246
     51 C17         7.4530   -2.1530   -0.4180 c3        1 MOL     -0.146077
     52 C18         7.9650   -0.9250   -1.1180 c         1 MOL      0.581361
     53 O9          9.1120   -0.7320   -1.4150 o         1 MOL     -0.598403
     54 H23         5.4080   -2.3380   -0.6020 hn        1 MOL      0.326164
     55 H24         8.3490   -2.7820   -0.3550 h1        1 MOL      0.085285
     56 H25         7.1280   -1.9230    0.5960 h1        1 MOL      0.085285
     57 N5          7.0520    0.0470   -1.3010 n         1 MOL     -0.093354
     58 C19         7.3150    1.3440   -1.8590 c3        1 MOL     -0.036613
     59 C20         7.3370    2.5520   -0.8720 c         1 MOL      0.444622
     60 O10         7.5680    3.7380   -1.2450 o         1 MOL     -0.571894
     61 C21         6.3500    1.7040   -3.0930 c3        1 MOL     -0.216938
     62 C22         4.8650    1.8160   -2.6620 c         1 MOL      0.887686
     63 O11         4.1160    2.3210   -3.5330 o         1 MOL     -0.754161
     64 O12         4.4220    1.6530   -1.5210 o         1 MOL     -0.754161
     65 H26         6.1700   -0.0170   -0.8100 hn        1 MOL     -0.062145
     66 H27         8.3530    1.4040   -2.1820 h1        1 MOL      0.086372
     67 H28         6.3680    0.8900   -3.8220 hc        1 MOL      0.066574
     68 H29         6.7030    2.5930   -3.6000 hc        1 MOL      0.066574
     69 N6          7.1360    2.2480    0.4020 n         1 MOL     -0.332215
     70 C23         7.0340    3.2690    1.4790 c3        1 MOL     -0.009345
     71 C24         5.5820    3.6580    1.7640 c         1 MOL      0.459238
     72 O13         5.3690    4.3650    2.7710 o         1 MOL     -0.589183
     73 H30         6.9750    1.2820    0.6260 hn        1 MOL      0.242553
     74 H31         7.6050    4.1870    1.3720 h1        1 MOL      0.070952
     75 H32         7.4510    2.8110    2.3750 h1        1 MOL      0.070952
     76 N7          4.5060    3.1790    1.0810 n         1 MOL     -0.215083
     77 C25         3.2050    3.8350    1.1220 c3        1 MOL     -0.148163
     78 C26         1.9930    2.9010    1.2360 c         1 MOL      0.690596
     79 O14         2.0320    1.7830    0.7450 o         1 MOL     -0.758344
     80 C27         3.1310    4.6960   -0.1950 c3        1 MOL      0.110248
     81 C28         4.0120    5.9470   -0.0660 c3        1 MOL     -0.274687
     82 C29         3.2040    7.0870   -0.7670 c         1 MOL      0.672395
     83 N8          3.0870    7.1930   -2.1010 n         1 MOL     -0.861292
     84 O15         2.4940    7.7870   -0.1260 o         1 MOL     -0.575340
     85 H33         4.6930    2.4380    0.4270 hn        1 MOL      0.271434
     86 H34         3.1940    4.5520    1.9470 h1        1 MOL      0.089739
     87 H35         2.1100    5.0240   -0.3890 hc        1 MOL      0.012497
     88 H36         3.3800    4.0620   -1.0410 hc        1 MOL      0.012497
     89 H37         4.9920    5.8500   -0.5340 hc        1 MOL      0.090614
     90 H38         4.1020    6.2030    0.9880 hc        1 MOL      0.090614
     91 H39         3.4730    6.4770   -2.7090 hn        1 MOL      0.374639
     92 H40         2.3490    7.8160   -2.3940 hn        1 MOL      0.374639
     93 N9          0.9500    3.4010    1.8810 n         1 MOL     -0.563330
     94 C30        -0.2770    2.6190    2.0950 c3        1 MOL      0.195219
     95 C31        -1.3450    3.0600    1.1630 c         1 MOL      0.453246
     96 O16        -1.9910    4.0570    1.4980 o         1 MOL     -0.576193
     97 C32        -0.6890    2.8270    3.6250 c3        1 MOL      0.251094
     98 C33        -1.7240    1.8360    3.9990 c3        1 MOL     -0.290528
     99 C34         0.4840    2.6990    4.6040 c3        1 MOL     -0.290528
    100 H41         1.0410    4.3660    2.1470 hn        1 MOL      0.310575
    101 H42        -0.1450    1.5560    1.8750 h1        1 MOL      0.127848
    102 H43        -1.0860    3.8480    3.7110 hc        1 MOL     -0.030108
    103 H44        -2.0200    1.9350    5.0390 hc        1 MOL      0.062561
    104 H45        -2.6080    2.0340    3.4020 hc        1 MOL      0.062561
    105 H46        -1.2360    0.8790    3.8060 hc        1 MOL      0.062561
    106 H47         1.1050    1.8360    4.3810 hc        1 MOL      0.062561
    107 H48         1.0950    3.6030    4.5750 hc        1 MOL      0.062561
    108 H49         0.2620    2.6960    5.6770 hc        1 MOL      0.062561
    109 N10        -1.7170    2.3410    0.0990 n         1 MOL     -0.355539
    110 C35        -2.8510    2.6720   -0.7770 c3        1 MOL      0.128436
    111 C36        -4.1550    2.1100   -0.1910 c         1 MOL      0.343414
    112 O17        -4.1330    1.4450    0.7900 o         1 MOL     -0.196826
    113 C37        -2.5940    2.0950   -2.1710 c3        1 MOL     -0.385722
    114 C38        -3.1130    0.7110   -2.4280 c         1 MOL      0.556550
    115 N11        -2.3820   -0.3400   -2.0910 n         1 MOL     -0.621968
    116 O18        -4.2540    0.5380   -2.8810 o         1 MOL     -0.517382
    117 H50        -1.1510    1.5520   -0.1940 hn        1 MOL      0.231260
    118 H51        -2.9860    3.7420   -0.9350 h1        1 MOL      0.074714
    119 H52        -1.5180    2.0540   -2.3220 hc        1 MOL      0.130327
    120 H53        -3.0170    2.7810   -2.9060 hc        1 MOL      0.130327
    121 H54        -1.4800   -0.1410   -1.6880 hn        1 MOL      0.366603
    122 H55        -2.7590   -1.2740   -2.1500 hn        1 MOL      0.366603
    123 N12        -5.3040    2.4180   -0.7580 n         1 MOL     -0.430195
    124 C39        -6.6750    2.0420   -0.2400 c3        1 MOL     -0.017378
    125 C40        -6.9410    0.4850   -0.2320 c         1 MOL      0.884470
    126 O19        -7.5000    0.0510    0.7240 o         1 MOL     -0.555921
    127 C41        -7.7610    2.8380   -1.0510 c3        1 MOL     -0.150266
    128 C42        -9.1880    2.4310   -0.7810 ca        1 MOL      0.198139
    129 C43        -9.7910    2.8690    0.3430 ca        1 MOL     -0.391515
    130 C44        -9.8420    1.5270   -1.6880 ca        1 MOL     -0.391515
    131 C45       -11.0900    2.3510    0.5760 ca        1 MOL     -0.026120
    132 C46       -11.0910    0.9570   -1.4530 ca        1 MOL     -0.026120
    133 C47       -11.7470    1.4180   -0.2550 ca        1 MOL      0.144160
    134 O20       -12.9430    0.8120    0.0770 oh        1 MOL     -0.557335
    135 H56        -5.2670    2.9170   -1.6320 hn        1 MOL      0.266157
    136 H57        -6.7310    2.4350    0.7720 h1        1 MOL      0.086667
    137 H58        -7.6110    2.7100   -2.1270 hc        1 MOL      0.065425
    138 H59        -7.7330    3.9230   -0.9370 hc        1 MOL      0.065425
    139 H60        -9.2600    3.5020    1.0440 ha        1 MOL      0.183451
    140 H61        -9.3370    1.1510   -2.5710 ha        1 MOL      0.183451
    141 H62       -11.5910    2.6430    1.4920 ha        1 MOL      0.103357
    142 H63       -11.5670    0.2550   -2.1210 ha        1 MOL      0.103357
    143 H64       -13.2930    0.2490   -0.6200 ho        1 MOL      0.425975
    144 N13        -6.4680   -0.2920   -1.2550 n         1 MOL     -0.475984
    145 C48        -6.4030   -1.7850   -1.1430 c3        1 MOL     -0.018681
    146 C49        -5.6040   -2.2710    0.0420 c         1 MOL      0.195054
    147 O21        -5.9750   -3.2310    0.6980 o         1 MOL     -0.472549
    148 C50        -5.8530   -2.3530   -2.4050 c3        1 MOL      0.276545
    149 C51        -6.7250   -2.0960   -3.6110 c3        1 MOL     -0.306911
    150 C52        -8.0050   -2.9250   -3.5910 c         1 MOL      0.755476
    151 O22        -8.2080   -3.8370   -2.7750 o         1 MOL     -0.749600
    152 O23        -8.8820   -2.5860   -4.3950 o         1 MOL     -0.749600
    153 H65        -6.0340    0.1360   -2.0540 hn        1 MOL      0.269040
    154 H66        -7.4340   -2.1190   -1.0040 h1        1 MOL      0.139938
    155 H67        -5.6250   -3.4230   -2.3680 hc        1 MOL     -0.030590
    156 H68        -4.9160   -1.8350   -2.5910 hc        1 MOL     -0.030590
    157 H69        -6.1750   -2.2740   -4.5300 hc        1 MOL      0.029860
    158 H70        -7.0490   -1.0560   -3.6500 hc        1 MOL      0.029860
    159 N14        -4.5570   -1.4930    0.4570 n         1 MOL      0.489451
    160 C53        -3.6850   -1.7250    1.5790 c3        1 MOL     -0.179636
    161 C54        -4.3810   -1.3390    2.9220 c         1 MOL      0.408060
    162 O24        -4.1510   -1.9110    3.9680 o         1 MOL     -0.557607
    163 C55        -2.2920   -1.1310    1.3720 c3        1 MOL      0.144133
    164 C56        -1.3390   -2.0170    0.5140 c3        1 MOL      0.088364
    165 C57        -0.1070   -1.1710    0.1830 c         1 MOL      0.491573
    166 O25         1.0870   -1.6450    0.1590 o         1 MOL     -0.554363
    167 O26        -0.1550   -0.0070   -0.3070 o         1 MOL     -0.554363
    168 H71        -4.4090   -0.6320   -0.0340 hn        1 MOL     -0.762678
    169 H72        -3.5840   -2.8190    1.6080 h1        1 MOL      0.082900
    170 H73        -1.8170   -0.8340    2.3040 hc        1 MOL     -0.010475
    171 H74        -2.3590   -0.2150    0.7970 hc        1 MOL     -0.010475
    172 H75        -1.9040   -2.3340   -0.3580 hc        1 MOL     -0.028733
    173 H76        -1.0420   -2.9120    1.0570 hc        1 MOL     -0.028733
    174 N15        -5.2910   -0.3750    2.9180 n         1 MOL     -0.024724
    175 C58        -6.1180   -0.0340    4.1240 c3        1 MOL     -0.218306
    176 H77        -5.6610    0.8020    4.6530 h1        1 MOL      0.082690
    177 H78        -7.1240    0.2420    3.8090 h1        1 MOL      0.082690
    178 H79        -6.1690   -0.8990    4.7870 h1        1 MOL      0.082690
    179 H80        -5.2630    0.2610    2.1370 hn        1 MOL      0.073807
    180 Ca1         2.3810    0.1450   -1.1040 Ca        1 MOL      1.760028
    181 O27         0.9070   -0.7280   -2.9600 oh        1 MOL     -0.941598
    182 H81         0.7100   -1.6280   -3.2170 ho        1 MOL      0.433592
    183 H82         1.0080   -0.2540   -3.7800 ho        1 MOL      0.433592
    184 O28         1.8960    2.3560   -2.4360 oh        1 MOL     -0.941598
    185 H83         2.8070    2.5470   -2.6860 ho        1 MOL      0.433592
    186 H84         1.3810    2.7120   -3.1670 ho        1 MOL      0.433592
@<TRIPOS>BOND
     1    1    2 1   
     2    1    4 1   
     3    1    5 1   
     4    1    6 1   
     5    2    3 2   
     6    2    7 1   
     7    7    8 1   
     8    7   15 1   
     9    8    9 1   
    10    8   11 1   
    11    8   16 1   
    12    9   10 2   
    13    9   19 1   
    14   11   12 1   
    15   11   17 1   
    16   11   18 1   
    17   12   13 1   
    18   12   14 1   
    19   19   20 1   
    20   19   27 1   
    21   20   21 1   
    22   20   23 1   
    23   20   28 1   
    24   21   22 2   
    25   21   38 1   
    26   23   24 1   
    27   23   25 1   
    28   23   29 1   
    29   24   26 1   
    30   24   30 1   
    31   24   31 1   
    32   25   32 1   
    33   25   33 1   
    34   25   34 1   
    35   26   35 1   
    36   26   36 1   
    37   26   37 1   
    38   38   39 1   
    39   38   46 1   
    40   39   40 1   
    41   39   42 1   
    42   39   47 1   
    43   40   41 2   
    44   40   50 1   
    45   42   43 1   
    46   42   48 1   
    47   42   49 1   
    48   43   44 1   
    49   43   45 1   
    50   50   51 1   
    51   50   54 1   
    52   51   52 1   
    53   51   55 1   
    54   51   56 1   
    55   52   53 2   
    56   52   57 1   
    57   57   58 1   
    58   57   65 1   
    59   58   59 1   
    60   58   61 1   
    61   58   66 1   
    62   59   60 2   
    63   59   69 1   
    64   61   62 1   
    65   61   67 1   
    66   61   68 1   
    67   62   63 1   
    68   62   64 1   
    69   69   70 1   
    70   69   73 1   
    71   70   71 1   
    72   70   74 1   
    73   70   75 1   
    74   71   72 2   
    75   71   76 1   
    76   76   77 1   
    77   76   85 1   
    78   77   78 1   
    79   77   80 1   
    80   77   86 1   
    81   78   79 2   
    82   78   93 1   
    83   80   81 1   
    84   80   87 1   
    85   80   88 1   
    86   81   82 1   
    87   81   89 1   
    88   81   90 1   
    89   82   83 1   
    90   82   84 2   
    91   83   91 1   
    92   83   92 1   
    93   93   94 1   
    94   93  100 1   
    95   94   95 1   
    96   94   97 1   
    97   94  101 1   
    98   95   96 2   
    99   95  109 1   
   100   97   98 1   
   101   97   99 1   
   102   97  102 1   
   103   98  103 1   
   104   98  104 1   
   105   98  105 1   
   106   99  106 1   
   107   99  107 1   
   108   99  108 1   
   109  109  110 1   
   110  109  117 1   
   111  110  111 1   
   112  110  113 1   
   113  110  118 1   
   114  111  112 2   
   115  111  123 1   
   116  113  114 1   
   117  113  119 1   
   118  113  120 1   
   119  114  115 1   
   120  114  116 2   
   121  115  121 1   
   122  115  122 1   
   123  123  124 1   
   124  123  135 1   
   125  124  125 1   
   126  124  127 1   
   127  124  136 1   
   128  125  126 2   
   129  125  144 1   
   130  127  128 1   
   131  127  137 1   
   132  127  138 1   
   133  128  129 ar  
   134  128  130 ar  
   135  129  131 ar  
   136  129  139 1   
   137  130  132 ar  
   138  130  140 1   
   139  131  133 ar  
   140  131  141 1   
   141  132  133 ar  
   142  132  142 1   
   143  133  134 1   
   144  134  143 1   
   145  144  145 1   
   146  144  153 1   
   147  145  146 1   
   148  145  148 1   
   149  145  154 1   
   150  146  147 2   
   151  146  159 1   
   152  148  149 1   
   153  148  155 1   
   154  148  156 1   
   155  149  150 1   
   156  149  157 1   
   157  149  158 1   
   158  150  151 1   
   159  150  152 1   
   160  159  160 1   
   161  159  168 1   
   162  160  161 1   
   163  160  163 1   
   164  160  169 1   
   165  161  162 2   
   166  161  174 1   
   167  163  164 1   
   168  163  170 1   
   169  163  171 1   
   170  164  165 1   
   171  164  172 1   
   172  164  173 1   
   173  165  166 1   
   174  165  167 1   
   175  174  175 1   
   176  174  179 1   
   177  175  176 1   
   178  175  177 1   
   179  175  178 1   
   180  181  182 1   
   181  181  183 1   
   182  184  185 1   
   183  184  186 1   
@<TRIPOS>SUBSTRUCTURE
     1 MOL         1 TEMP              0 ****  ****    0 ROOT
