@<TRIPOS>MOLECULE
MOL
  179   176     1     0     0
SMALL
resp


@<TRIPOS>ATOM
      1 C1         -1.1450   -3.9680    5.7690 c3        1 MOL     -0.359772
      2 C2         -0.7090   -3.6500    4.3060 c         1 MOL      0.747999
      3 O1         -1.3520   -3.8350    3.2830 o         1 MOL     -0.620318
      4 H1         -0.4920   -4.7360    6.1840 hc        1 MOL      0.094604
      5 H2         -1.0730   -3.0640    6.3740 hc        1 MOL      0.094604
      6 H3         -2.1740   -4.3270    5.7730 hc        1 MOL      0.094604
      7 N1          0.5170   -3.1320    4.1820 n         1 MOL     -0.598666
      8 C3          1.1010   -2.7330    2.8870 c3        1 MOL     -0.026015
      9 C4          1.3860   -3.9990    2.0510 c         1 MOL      0.568746
     10 O2          2.1210   -4.9370    2.4730 o         1 MOL     -0.574926
     11 C5          2.3340   -1.8570    3.1070 c3        1 MOL     -0.010114
     12 C6          3.0870   -1.3820    1.8370 c         1 MOL      0.632587
     13 O3          2.6880   -1.7330    0.6470 o         1 MOL     -0.715176
     14 O4          4.0540   -0.6300    1.9320 o         1 MOL     -0.715176
     15 H4          1.1160   -2.9960    4.9800 hn        1 MOL      0.313736
     16 H5          0.3170   -2.1600    2.4070 h1        1 MOL      0.011731
     17 H6          3.0270   -2.3350    3.7850 hc        1 MOL      0.042082
     18 H7          2.1830   -0.9320    3.6600 hc        1 MOL      0.042082
     19 N2          0.8230   -3.9540    0.8560 n         1 MOL     -0.162141
     20 C7          0.8610   -5.0020   -0.1450 c3        1 MOL     -0.140194
     21 C8          2.1990   -5.2720   -0.8610 c         1 MOL      0.472639
     22 O5          2.4290   -6.3770   -1.4280 o         1 MOL     -0.559374
     23 C9         -0.2640   -4.9120   -1.1890 c3        1 MOL     -0.017150
     24 C10        -1.6060   -5.3960   -0.6180 c3        1 MOL      0.106494
     25 C11        -2.6720   -5.5400   -1.6760 c3        1 MOL     -0.274518
     26 C12        -3.8930   -6.1460   -0.9580 c3        1 MOL      0.217758
     27 N3         -4.8970   -6.6900   -1.8270 n4        1 MOL     -0.265223
     28 H8          0.2330   -3.1570    0.6920 hn        1 MOL      0.262251
     29 H9          0.6810   -5.9250    0.4150 h1        1 MOL      0.083788
     30 H10        -0.0410   -5.4770   -2.0970 hc        1 MOL      0.014212
     31 H11        -0.4480   -3.8660   -1.4400 hc        1 MOL      0.014212
     32 H12        -1.9200   -4.7360    0.1910 hc        1 MOL      0.014611
     33 H13        -1.3020   -6.3210   -0.1320 hc        1 MOL      0.014611
     34 H14        -2.3880   -6.1940   -2.4970 hc        1 MOL      0.068223
     35 H15        -2.9720   -4.6010   -2.1470 hc        1 MOL      0.068223
     36 H16        -4.2860   -5.4360   -0.2360 hx        1 MOL      0.039358
     37 H17        -3.6030   -7.0180   -0.3650 hx        1 MOL      0.039358
     38 H18        -5.1090   -6.0180   -2.5420 hn        1 MOL      0.296368
     39 H19        -4.5410   -7.4220   -2.4340 hn        1 MOL      0.296368
     40 H20        -5.7260   -7.0070   -1.3580 hn        1 MOL      0.296368
     41 N4          3.1280   -4.2900   -0.8950 n         1 MOL     -0.235649
     42 C13         4.3830   -4.4670   -1.5830 c3        1 MOL     -0.043075
     43 C14         5.6090   -3.8700   -0.8770 c         1 MOL      0.514076
     44 O6          6.6640   -3.8370   -1.4780 o         1 MOL     -0.539830
     45 C15         4.2820   -4.0090   -3.0800 c3        1 MOL     -0.114740
     46 C16         3.8890   -2.5000   -3.2900 c         1 MOL      0.700480
     47 O7          3.9950   -2.0440   -4.4390 o         1 MOL     -0.712170
     48 O8          3.5670   -1.7670   -2.3380 o         1 MOL     -0.712170
     49 H21         2.8470   -3.4060   -0.4970 hn        1 MOL      0.132749
     50 H22         4.6630   -5.5230   -1.5440 h1        1 MOL      0.112142
     51 H23         3.5400   -4.6860   -3.5000 hc        1 MOL      0.037783
     52 H24         5.2190   -4.1490   -3.6110 hc        1 MOL      0.037783
     53 N5          5.5120   -3.4070    0.3540 n         1 MOL     -0.377505
     54 C17         6.4930   -2.6150    1.1430 c3        1 MOL      0.033439
     55 C18         7.0640   -1.2880    0.6190 c         1 MOL      0.380032
     56 O9          8.1050   -0.7650    1.0460 o         1 MOL     -0.565593
     57 H25         4.5980   -3.4360    0.7760 hn        1 MOL      0.221164
     58 H26         7.2450   -3.2550    1.6100 h1        1 MOL      0.064949
     59 H27         5.9730   -2.2200    2.0190 h1        1 MOL      0.064949
     60 N6          6.3890   -0.7270   -0.3140 n         1 MOL     -0.141360
     61 C19         6.6760    0.6080   -0.8340 c3        1 MOL     -0.016312
     62 C20         6.3450    1.8030    0.0960 c         1 MOL      0.279095
     63 O10         6.6440    2.9420   -0.3340 o         1 MOL     -0.423406
     64 C21         6.0280    0.8560   -2.1770 c3        1 MOL     -0.395141
     65 C22         4.5470    1.2100   -2.1310 c         1 MOL      0.707496
     66 N7          3.9680    1.8610   -3.0910 n         1 MOL     -0.736806
     67 O11         3.9040    0.9370   -1.1430 o         1 MOL     -0.698397
     68 H28         5.4710   -1.1210   -0.4860 hn        1 MOL      0.251168
     69 H29         7.7450    0.7670   -0.9660 h1        1 MOL      0.141999
     70 H30         6.1590    0.0490   -2.8970 hc        1 MOL      0.143379
     71 H31         6.4860    1.7150   -2.6710 hc        1 MOL      0.143379
     72 H32         4.5230    2.0350   -3.9190 hn        1 MOL      0.362792
     73 H33         3.0100    2.1500   -2.9670 hn        1 MOL      0.362792
     74 N8          5.6930    1.4890    1.2270 n         1 MOL     -0.086662
     75 C23         5.4680    2.4410    2.2670 c3        1 MOL     -0.317262
     76 C24         4.2190    3.1770    2.3090 c         1 MOL      0.633833
     77 O12         3.8930    3.8820    3.2750 o         1 MOL     -0.593961
     78 H34         5.4950    0.5330    1.4540 hn        1 MOL      0.295026
     79 H35         6.3130    3.1290    2.3830 h1        1 MOL      0.130691
     80 H36         5.4240    1.8520    3.1770 h1        1 MOL      0.130691
     81 N9          3.3810    2.9340    1.2770 n         1 MOL     -0.352906
     82 C25         2.1420    3.5900    1.0840 c3        1 MOL      0.334743
     83 C26         0.9450    2.5920    1.1150 c         1 MOL      0.382488
     84 O13         1.0600    1.5660    0.4420 o         1 MOL     -0.578377
     85 C27         2.1250    4.3770   -0.2020 c3        1 MOL     -0.158630
     86 C28         3.1930    5.4490   -0.3720 ca        1 MOL      0.117322
     87 C29         4.3820    5.1260   -1.0570 ca        1 MOL     -0.272995
     88 C30         2.9010    6.7800    0.0180 ca        1 MOL     -0.272995
     89 C31         5.3380    6.1680   -1.2990 ca        1 MOL     -0.156694
     90 C32         3.9010    7.7710   -0.1840 ca        1 MOL     -0.156694
     91 C33         5.0900    7.4490   -0.8690 ca        1 MOL      0.256440
     92 O14         6.0500    8.3820   -1.2040 oh        1 MOL     -0.449221
     93 H37         3.6300    2.1860    0.6420 hn        1 MOL      0.241428
     94 H38         2.0220    4.2290    1.9650 h1        1 MOL     -0.020773
     95 H39         1.1590    4.8900   -0.1950 hc        1 MOL      0.048840
     96 H40         2.1550    3.6680   -1.0210 hc        1 MOL      0.048840
     97 H41         4.5210    4.1100   -1.3910 ha        1 MOL      0.156062
     98 H42         2.0190    7.0470    0.5690 ha        1 MOL      0.156062
     99 H43         6.2240    5.9940   -1.8840 ha        1 MOL      0.124373
    100 H44         3.6100    8.7860    0.0180 ha        1 MOL      0.124373
    101 H45         5.7360    9.2290   -0.8890 ho        1 MOL      0.330238
    102 N10        -0.2210    2.9250    1.6570 n         1 MOL     -0.381380
    103 C34        -1.5610    2.3480    1.4550 c3        1 MOL     -0.044155
    104 C35        -2.4730    3.4050    0.8050 c         1 MOL      0.526721
    105 O15        -2.5160    4.6050    1.1780 o         1 MOL     -0.548407
    106 C36        -2.1500    1.6200    2.6610 c3        1 MOL      0.129383
    107 C37        -2.7290    2.6220    3.7540 c3        1 MOL     -0.067085
    108 C38        -1.3250    0.4650    3.1870 c3        1 MOL     -0.074197
    109 C39        -3.7420    1.9360    4.7540 c3        1 MOL     -0.153092
    110 H46        -0.2710    3.8390    2.0690 hn        1 MOL      0.264926
    111 H47        -1.4440    1.5950    0.6860 h1        1 MOL      0.146173
    112 H48        -3.0480    1.1360    2.2750 hc        1 MOL     -0.091973
    113 H49        -3.3070    3.3890    3.2490 hc        1 MOL      0.041567
    114 H50        -1.8980    3.1620    4.2020 hc        1 MOL      0.041567
    115 H51        -1.8990   -0.1150    3.9190 hc        1 MOL      0.042193
    116 H52        -1.1300   -0.1590    2.3160 hc        1 MOL      0.042193
    117 H53        -0.4020    0.8290    3.6550 hc        1 MOL      0.042193
    118 H54        -4.4080    1.2730    4.2160 hc        1 MOL      0.042783
    119 H55        -3.1430    1.3310    5.4370 hc        1 MOL      0.042783
    120 H56        -4.2540    2.7320    5.2940 hc        1 MOL      0.042783
    121 N11        -3.2550    2.9360   -0.1480 n         1 MOL     -0.397145
    122 C40        -4.3960    3.5880   -0.8300 c3        1 MOL      0.189028
    123 C41        -5.8070    3.1250   -0.2890 c         1 MOL      0.384812
    124 O16        -5.8220    2.0630    0.3650 o         1 MOL     -0.388083
    125 C42        -4.2950    3.2410   -2.3150 c3        1 MOL     -0.245373
    126 O17        -4.8500    1.9620   -2.7200 oh        1 MOL     -0.404958
    127 H57        -3.1840    1.9460   -0.3640 hn        1 MOL      0.227281
    128 H58        -4.3930    4.6800   -0.8450 h1        1 MOL      0.059808
    129 H59        -3.2340    3.2360   -2.5690 h1        1 MOL      0.129437
    130 H60        -4.8240    4.0190   -2.8730 h1        1 MOL      0.129437
    131 H61        -4.4610    1.6620   -3.5430 ho        1 MOL      0.376400
    132 N12        -6.8700    3.8560   -0.6420 n         1 MOL     -0.382359
    133 C43        -8.1880    3.3610   -0.2770 c3        1 MOL      0.042700
    134 C44        -8.5240    1.9570   -0.8830 c         1 MOL      0.501782
    135 O18        -9.1740    1.1830   -0.1550 o         1 MOL     -0.508433
    136 C45        -9.1670    4.4940   -0.7580 c3        1 MOL     -0.263196
    137 H62        -6.6960    4.6870   -1.1810 hn        1 MOL      0.298428
    138 H63        -8.2700    3.2320    0.8040 h1        1 MOL      0.121144
    139 H64        -9.0960    4.6190   -1.8460 hc        1 MOL      0.089263
    140 H65       -10.2370    4.3650   -0.5830 hc        1 MOL      0.089263
    141 H66        -8.9100    5.4470   -0.2740 hc        1 MOL      0.089263
    142 N13        -8.0410    1.5250   -2.0680 n         1 MOL     -0.396364
    143 C46        -8.1610    0.1100   -2.4610 c3        1 MOL      0.079094
    144 C47        -7.3290   -0.8820   -1.5150 c         1 MOL      0.344408
    145 O19        -7.8040   -1.8960   -1.0210 o         1 MOL     -0.506675
    146 C48        -7.7100    0.0440   -3.8800 c3        1 MOL     -0.198738
    147 H67        -7.3970    2.0850   -2.6140 hn        1 MOL      0.247100
    148 H68        -9.1810   -0.2800   -2.3420 h1        1 MOL      0.108083
    149 H69        -6.6710    0.3660   -3.9950 hc        1 MOL      0.058567
    150 H70        -7.7270   -0.9440   -4.3450 hc        1 MOL      0.058567
    151 H71        -8.2520    0.6880   -4.5730 hc        1 MOL      0.058567
    152 N14        -6.0610   -0.6230   -1.2410 n         1 MOL     -0.011328
    153 C49        -5.2490   -1.3310   -0.2970 c3        1 MOL     -0.314479
    154 C50        -5.7120   -1.3060    1.2080 c         1 MOL      0.551051
    155 O20        -5.5780   -2.3440    1.8870 o         1 MOL     -0.572198
    156 C51        -3.8710   -0.6460   -0.5780 c3        1 MOL     -0.120101
    157 C52        -2.6790   -1.4730   -0.0220 c3        1 MOL     -0.020473
    158 C53        -1.2960   -1.0330   -0.4770 c         1 MOL      0.574887
    159 O21        -1.0670   -0.0750   -1.2950 o         1 MOL     -0.726735
    160 O22        -0.3340   -1.7320   -0.0460 o         1 MOL     -0.726735
    161 H72        -5.6500    0.1870   -1.6900 hn        1 MOL      0.012337
    162 H73        -5.2760   -2.3460   -0.6910 h1        1 MOL      0.121666
    163 H74        -3.8050    0.3260   -0.0950 hc        1 MOL      0.078109
    164 H75        -3.6350   -0.5730   -1.6420 hc        1 MOL      0.078109
    165 H76        -2.8450   -2.4700   -0.4140 hc        1 MOL      0.072372
    166 H77        -2.6120   -1.5720    1.0630 hc        1 MOL      0.072372
    167 N15        -6.3240   -0.2830    1.7640 n         1 MOL     -0.030086
    168 C54        -7.0200   -0.2870    3.0720 c3        1 MOL     -0.232302
    169 H78        -6.4490   -0.8850    3.7840 h1        1 MOL      0.096933
    170 H79        -7.1050    0.7340    3.4420 h1        1 MOL      0.096933
    171 H80        -8.0150   -0.7160    2.9530 h1        1 MOL      0.096933
    172 H81        -6.4790    0.5720    1.2540 hn        1 MOL      0.135508
    173 Ca1         1.5760   -0.3860   -1.2980 Ca        1 MOL      1.811308
    174 O23         0.6980   -2.2250   -3.0220 oh        1 MOL     -0.922270
    175 H82        -0.1940   -2.5810   -3.0520 ho        1 MOL      0.445437
    176 H83         1.1890   -2.7660   -3.6350 ho        1 MOL      0.445437
    177 O24         1.1360    1.5410   -2.9950 oh        1 MOL     -0.922270
    178 H84         0.3470    2.0940   -3.0420 ho        1 MOL      0.445437
    179 H85         1.2790    1.2650   -3.8930 ho        1 MOL      0.445437
@<TRIPOS>BOND
     1    1    2 1   
     2    1    4 1   
     3    1    5 1   
     4    1    6 1   
     5    2    3 2   
     6    2    7 1   
     7    7    8 1   
     8    7   15 1   
     9    8    9 1   
    10    8   11 1   
    11    8   16 1   
    12    9   10 2   
    13    9   19 1   
    14   11   12 1   
    15   11   17 1   
    16   11   18 1   
    17   12   13 1   
    18   12   14 1   
    19   19   20 1   
    20   19   28 1   
    21   20   21 1   
    22   20   23 1   
    23   20   29 1   
    24   21   22 2   
    25   21   41 1   
    26   23   24 1   
    27   23   30 1   
    28   23   31 1   
    29   24   25 1   
    30   24   32 1   
    31   24   33 1   
    32   25   26 1   
    33   25   34 1   
    34   25   35 1   
    35   26   27 1   
    36   26   36 1   
    37   26   37 1   
    38   27   38 1   
    39   27   39 1   
    40   27   40 1   
    41   41   42 1   
    42   41   49 1   
    43   42   43 1   
    44   42   45 1   
    45   42   50 1   
    46   43   44 2   
    47   43   53 1   
    48   45   46 1   
    49   45   51 1   
    50   45   52 1   
    51   46   47 1   
    52   46   48 1   
    53   53   54 1   
    54   53   57 1   
    55   54   55 1   
    56   54   58 1   
    57   54   59 1   
    58   55   56 2   
    59   55   60 1   
    60   60   61 1   
    61   60   68 1   
    62   61   62 1   
    63   61   64 1   
    64   61   69 1   
    65   62   63 2   
    66   62   74 1   
    67   64   65 1   
    68   64   70 1   
    69   64   71 1   
    70   65   66 1   
    71   65   67 2   
    72   66   72 1   
    73   66   73 1   
    74   74   75 1   
    75   74   78 1   
    76   75   76 1   
    77   75   79 1   
    78   75   80 1   
    79   76   77 2   
    80   76   81 1   
    81   81   82 1   
    82   81   93 1   
    83   82   83 1   
    84   82   85 1   
    85   82   94 1   
    86   83   84 2   
    87   83  102 1   
    88   85   86 1   
    89   85   95 1   
    90   85   96 1   
    91   86   87 ar  
    92   86   88 ar  
    93   87   89 ar  
    94   87   97 1   
    95   88   90 ar  
    96   88   98 1   
    97   89   91 ar  
    98   89   99 1   
    99   90   91 ar  
   100   90  100 1   
   101   91   92 1   
   102   92  101 1   
   103  102  103 1   
   104  102  110 1   
   105  103  104 1   
   106  103  106 1   
   107  103  111 1   
   108  104  105 2   
   109  104  121 1   
   110  106  107 1   
   111  106  108 1   
   112  106  112 1   
   113  107  109 1   
   114  107  113 1   
   115  107  114 1   
   116  108  115 1   
   117  108  116 1   
   118  108  117 1   
   119  109  118 1   
   120  109  119 1   
   121  109  120 1   
   122  121  122 1   
   123  121  127 1   
   124  122  123 1   
   125  122  125 1   
   126  122  128 1   
   127  123  124 2   
   128  123  132 1   
   129  125  126 1   
   130  125  129 1   
   131  125  130 1   
   132  126  131 1   
   133  132  133 1   
   134  132  137 1   
   135  133  134 1   
   136  133  136 1   
   137  133  138 1   
   138  134  135 2   
   139  134  142 1   
   140  136  139 1   
   141  136  140 1   
   142  136  141 1   
   143  142  143 1   
   144  142  147 1   
   145  143  144 1   
   146  143  146 1   
   147  143  148 1   
   148  144  145 2   
   149  144  152 1   
   150  146  149 1   
   151  146  150 1   
   152  146  151 1   
   153  152  153 1   
   154  152  161 1   
   155  153  154 1   
   156  153  156 1   
   157  153  162 1   
   158  154  155 2   
   159  154  167 1   
   160  156  157 1   
   161  156  163 1   
   162  156  164 1   
   163  157  158 1   
   164  157  165 1   
   165  157  166 1   
   166  158  159 1   
   167  158  160 1   
   168  167  168 1   
   169  167  172 1   
   170  168  169 1   
   171  168  170 1   
   172  168  171 1   
   173  174  175 1   
   174  174  176 1   
   175  177  178 1   
   176  177  179 1   
@<TRIPOS>SUBSTRUCTURE
     1 MOL         1 TEMP              0 ****  ****    0 ROOT
