@<TRIPOS>MOLECULE
MOL
  172   171     1     0     0
SMALL
resp


@<TRIPOS>ATOM
      1 C1          0.0470   -4.1410    5.7630 c3        1 MOL     -0.336295
      2 C2          0.7330   -4.0060    4.4290 c         1 MOL      0.815078
      3 O1          0.1030   -4.3680    3.4850 o         1 MOL     -0.586114
      4 H1          0.6600   -4.7520    6.4260 hc        1 MOL      0.070976
      5 H2         -0.0910   -3.1540    6.2020 hc        1 MOL      0.070976
      6 H3         -0.9240   -4.6170    5.6260 hc        1 MOL      0.070976
      7 N1          1.9320   -3.5540    4.2700 n         1 MOL     -0.747026
      8 C3          2.4780   -3.3450    2.9020 c3        1 MOL      0.386846
      9 C4          2.5280   -4.5720    2.0020 c         1 MOL      0.445200
     10 O2          3.0070   -5.6530    2.4410 o         1 MOL     -0.585633
     11 C5          3.8430   -2.6470    2.9280 c3        1 MOL     -0.354681
     12 C6          4.3700   -2.4980    1.5010 c         1 MOL      0.735874
     13 O3          3.6550   -1.9510    0.6500 o         1 MOL     -0.645973
     14 O4          5.4900   -2.9780    1.2330 o         1 MOL     -0.645973
     15 H4          2.4440   -3.1340    5.0450 hn        1 MOL      0.332922
     16 H5          1.7180   -2.7190    2.4240 h1        1 MOL      0.049895
     17 H6          4.5950   -3.1740    3.5080 hc        1 MOL      0.057154
     18 H7          3.7180   -1.6600    3.3640 hc        1 MOL      0.057154
     19 N2          2.1890   -4.3730    0.7430 n         1 MOL     -0.358523
     20 C7          2.3510   -5.3310   -0.3720 c3        1 MOL      0.468301
     21 C8          3.1860   -4.9050   -1.6140 c         1 MOL      0.350571
     22 O5          3.3450   -5.6270   -2.5440 o         1 MOL     -0.541128
     23 C9          0.9360   -5.7240   -0.7250 c3        1 MOL     -0.315831
     24 H8          1.8970   -3.4560    0.4130 hn        1 MOL      0.275643
     25 H9          2.8350   -6.2180    0.0350 h1        1 MOL     -0.039730
     26 H10         0.4110   -6.0530    0.1730 hc        1 MOL      0.061902
     27 H11         0.4970   -4.8380   -1.1830 hc        1 MOL      0.061902
     28 H12         1.0120   -6.5430   -1.4430 hc        1 MOL      0.061902
     29 N3          3.7780   -3.6420   -1.6680 n         1 MOL     -0.165540
     30 C10         4.6460   -3.1460   -2.8440 c3        1 MOL      0.076339
     31 C11         5.9470   -2.3390   -2.4250 c         1 MOL      0.255988
     32 O6          6.6370   -1.8160   -3.3760 o         1 MOL     -0.539480
     33 C12         3.7820   -2.4120   -3.9000 c3        1 MOL     -0.093506
     34 C13         3.0880   -1.1860   -3.2440 c         1 MOL      0.645991
     35 O7          1.9230   -0.8620   -3.5460 o         1 MOL     -0.668523
     36 O8          3.6820   -0.5400   -2.3490 o         1 MOL     -0.668523
     37 H13         3.7560   -3.1430   -0.7970 hn        1 MOL     -0.045526
     38 H14         4.9900   -4.0210   -3.3950 h1        1 MOL      0.066787
     39 H15         2.9910   -3.0820   -4.2200 hc        1 MOL      0.029609
     40 H16         4.3290   -2.1450   -4.8070 hc        1 MOL      0.029609
     41 N4          6.1720   -2.0440   -1.1490 n         1 MOL     -0.016486
     42 C14         7.3470   -1.3100   -0.8170 c3        1 MOL     -0.204353
     43 C15         7.3610    0.1390   -1.1760 c         1 MOL      0.505698
     44 O9          8.4410    0.7040   -0.9900 o         1 MOL     -0.610853
     45 H17         5.6350   -2.5000   -0.4230 hn        1 MOL      0.157040
     46 H18         8.2280   -1.8130   -1.2060 h1        1 MOL      0.087956
     47 H19         7.3190   -1.2560    0.2750 h1        1 MOL      0.087956
     48 N5          6.2630    0.6900   -1.6570 n         1 MOL     -0.040749
     49 C16         6.1620    2.0790   -2.0480 c3        1 MOL     -0.208296
     50 C17         6.2250    3.0890   -0.9400 c         1 MOL      0.608996
     51 O10         6.5670    4.1690   -1.2040 o         1 MOL     -0.557723
     52 C18         4.9440    2.2670   -2.9980 c3        1 MOL      0.035476
     53 C19         3.6140    2.3660   -2.3300 c         1 MOL      0.464685
     54 N6          2.5420    2.4250   -3.0730 n         1 MOL     -0.563012
     55 O11         3.4930    2.2470   -1.1000 o         1 MOL     -0.538386
     56 H20         5.4470    0.0920   -1.6980 hn        1 MOL      0.074240
     57 H21         7.0480    2.2670   -2.6510 h1        1 MOL      0.108220
     58 H22         4.9210    1.4510   -3.7130 hc        1 MOL      0.030634
     59 H23         5.0480    3.1270   -3.6560 hc        1 MOL      0.030634
     60 H24         2.6900    2.4320   -4.0760 hn        1 MOL      0.320998
     61 H25         1.5980    2.4470   -2.6930 hn        1 MOL      0.320998
     62 N7          5.9550    2.7220    0.2860 n         1 MOL     -0.322442
     63 C20         6.0350    3.6220    1.4520 c3        1 MOL     -0.286554
     64 C21         4.7970    4.3150    1.8250 c         1 MOL      0.467910
     65 O12         4.7730    5.2520    2.6130 o         1 MOL     -0.578974
     66 H26         5.8190    1.7460    0.5140 hn        1 MOL      0.237891
     67 H27         6.7430    4.4330    1.2800 h1        1 MOL      0.147566
     68 H28         6.4310    3.0900    2.3200 h1        1 MOL      0.147566
     69 N8          3.6260    3.9620    1.3070 n         1 MOL     -0.203631
     70 C22         2.3240    4.6130    1.5160 c3        1 MOL     -0.213409
     71 C23         1.1970    3.5800    1.4890 c         1 MOL      0.405278
     72 O13         1.3780    2.5440    0.8090 o         1 MOL     -0.489833
     73 C24         2.1450    5.6010    0.3530 c3        1 MOL      0.660466
     74 C25         3.0650    6.8240    0.2280 c3        1 MOL     -0.497765
     75 O14         2.1030    4.9400   -0.8620 oh        1 MOL     -0.582340
     76 H29         3.7220    3.3020    0.5490 hn        1 MOL      0.278663
     77 H30         2.3300    5.0510    2.5070 h1        1 MOL      0.094630
     78 H31         1.1610    5.9980    0.6040 h1        1 MOL     -0.107458
     79 H32         2.3860    4.0520   -0.6010 ho        1 MOL      0.241176
     80 H33         2.6420    7.5230   -0.4940 hc        1 MOL      0.120296
     81 H34         3.1100    7.2460    1.2410 hc        1 MOL      0.120296
     82 H35         4.0380    6.4330   -0.0580 hc        1 MOL      0.120296
     83 N9          0.0450    3.8440    2.0010 n         1 MOL     -0.218267
     84 C26        -1.1280    2.9150    2.0430 c3        1 MOL     -0.044119
     85 C27        -1.9260    3.1510    0.8270 c         1 MOL      0.461623
     86 O15        -2.6250    4.1520    0.6510 o         1 MOL     -0.557268
     87 C28        -1.9490    3.0340    3.3230 c3        1 MOL      0.094510
     88 C29        -1.0490    3.0350    4.5660 c3        1 MOL      0.130557
     89 C30        -3.0390    1.9200    3.3530 c3        1 MOL     -0.090593
     90 C31        -1.6360    3.9650    5.6960 c3        1 MOL     -0.264150
     91 H36        -0.1040    4.7870    2.3230 hn        1 MOL      0.217622
     92 H37        -0.7380    1.8900    2.0350 h1        1 MOL      0.039129
     93 H38        -2.5420    3.9530    3.2510 hc        1 MOL     -0.002907
     94 H39        -0.0040    3.3260    4.3780 hc        1 MOL     -0.014553
     95 H40        -0.9120    2.0230    4.9500 hc        1 MOL     -0.014553
     96 H41        -3.5580    1.8320    2.4000 hc        1 MOL      0.012144
     97 H42        -2.5870    0.9570    3.5570 hc        1 MOL      0.012144
     98 H43        -3.7580    2.0390    4.1590 hc        1 MOL      0.012144
     99 H44        -2.7090    3.7970    5.7850 hc        1 MOL      0.054034
    100 H45        -1.1200    3.6770    6.6240 hc        1 MOL      0.054034
    101 H46        -1.4350    5.0130    5.5040 hc        1 MOL      0.054034
    102 N10        -2.0120    2.1470   -0.0860 n         1 MOL     -0.100847
    103 C32        -2.8020    2.0310   -1.3320 c3        1 MOL     -0.076524
    104 C33        -4.2100    1.3280   -1.0700 c         1 MOL      0.521666
    105 O16        -4.2410    0.5140   -0.1740 o         1 MOL     -0.330617
    106 C34        -2.0280    1.1750   -2.3390 c3        1 MOL     -0.197005
    107 C35        -0.6030    1.5040   -2.4110 c         1 MOL      0.731735
    108 O17         0.2450    1.0680   -1.5490 o         1 MOL     -0.657800
    109 O18        -0.2230    2.1580   -3.4310 o         1 MOL     -0.657800
    110 H47        -1.3070    1.4170   -0.1080 hn        1 MOL      0.044584
    111 H48        -3.0570    2.9940   -1.7780 h1        1 MOL      0.067504
    112 H49        -2.5410    1.0990   -3.2950 hc        1 MOL      0.066856
    113 H50        -2.2050    0.1610   -1.9720 hc        1 MOL      0.066856
    114 N11        -5.2420    1.4540   -1.8920 n         1 MOL     -0.649844
    115 C36        -6.5600    0.9830   -1.5780 c3        1 MOL      0.396254
    116 C37        -6.6540   -0.5050   -1.1750 c         1 MOL      0.200003
    117 O19        -7.2650   -0.8190   -0.0780 o         1 MOL     -0.477601
    118 C38        -7.4700    1.3140   -2.7390 c3        1 MOL     -0.266915
    119 C39        -8.8680    1.5140   -2.2170 ca        1 MOL      0.040497
    120 C40        -9.1320    2.6050   -1.2970 ca        1 MOL     -0.118085
    121 C41        -9.9480    0.6630   -2.5670 ca        1 MOL     -0.118085
    122 C42       -10.4930    2.7990   -0.8300 ca        1 MOL     -0.172691
    123 C43       -11.2800    0.8750   -2.1700 ca        1 MOL     -0.172691
    124 C44       -11.5520    1.9270   -1.2610 ca        1 MOL     -0.047927
    125 H51        -5.1700    1.9050   -2.7910 hn        1 MOL      0.319846
    126 H52        -6.8070    1.5190   -0.6670 h1        1 MOL      0.063552
    127 H53        -7.3770    0.5430   -3.4960 hc        1 MOL      0.087790
    128 H54        -7.1590    2.2500   -3.2180 hc        1 MOL      0.087790
    129 H55        -8.3650    3.3090   -0.9980 ha        1 MOL      0.118404
    130 H56        -9.7710   -0.2240   -3.1660 ha        1 MOL      0.118404
    131 H57       -10.7380    3.5690   -0.1110 ha        1 MOL      0.127272
    132 H58       -12.1130    0.2850   -2.5170 ha        1 MOL      0.127272
    133 H59       -12.5850    2.1500   -0.9940 ha        1 MOL      0.084782
    134 N12        -5.9840   -1.4770   -1.8420 n         1 MOL     -0.000545
    135 C45        -5.9610   -2.8750   -1.3780 c3        1 MOL      0.095057
    136 C46        -5.4390   -2.9570    0.0330 c         1 MOL      0.293460
    137 O20        -5.9270   -3.7690    0.7770 o         1 MOL     -0.517659
    138 C47        -5.1930   -3.6540   -2.4200 c3        1 MOL     -0.017758
    139 C48        -5.4370   -2.7800   -3.7060 c3        1 MOL     -0.163603
    140 C49        -5.3570   -1.3780   -3.1460 c3        1 MOL     -0.071687
    141 H60        -6.9970   -3.2100   -1.3360 h1        1 MOL      0.042399
    142 H61        -4.1550   -3.5700   -2.1150 hc        1 MOL      0.047512
    143 H62        -5.4970   -4.6990   -2.5420 hc        1 MOL      0.047512
    144 H63        -4.6130   -2.9290   -4.4000 hc        1 MOL      0.057012
    145 H64        -6.4220   -2.8320   -4.1860 hc        1 MOL      0.057012
    146 H65        -4.2880   -1.1670   -3.1180 h1        1 MOL      0.075135
    147 H66        -5.8510   -0.6390   -3.7740 h1        1 MOL      0.075135
    148 N13        -4.4210   -2.2340    0.5040 n         1 MOL     -0.075595
    149 C50        -3.7710   -2.3430    1.8420 c3        1 MOL     -0.121652
    150 C51        -4.6830   -1.6010    2.8510 c         1 MOL      0.445756
    151 O21        -4.7530   -1.9810    4.0080 o         1 MOL     -0.556539
    152 C52        -2.3860   -1.7190    1.7600 c3        1 MOL      0.057362
    153 C53        -1.2870   -2.4070    0.9230 c3        1 MOL     -0.028064
    154 C54        -0.0380   -1.6200    0.6690 c         1 MOL      0.615669
    155 O22         0.5700   -1.9290   -0.3900 o         1 MOL     -0.758111
    156 O23         0.5830   -0.9930    1.5400 o         1 MOL     -0.758111
    157 H67        -4.1360   -1.3910    0.0200 hn        1 MOL      0.063730
    158 H68        -3.7300   -3.4040    2.1020 h1        1 MOL      0.128630
    159 H69        -1.9960   -1.6150    2.7750 hc        1 MOL      0.028746
    160 H70        -2.4500   -0.7350    1.3090 hc        1 MOL      0.028746
    161 H71        -1.8010   -2.6090   -0.0170 hc        1 MOL      0.010248
    162 H72        -1.0330   -3.3300    1.4400 hc        1 MOL      0.010248
    163 N14        -5.4630   -0.5220    2.4640 n         1 MOL     -0.005237
    164 C55        -6.4660    0.0850    3.3050 c3        1 MOL     -0.141220
    165 H73        -6.8520   -0.6580    4.0030 h1        1 MOL      0.052960
    166 H74        -6.0220    0.9100    3.8640 h1        1 MOL      0.052960
    167 H75        -7.2810    0.4610    2.6870 h1        1 MOL      0.052960
    168 H76        -5.4420   -0.2470    1.4940 hn        1 MOL      0.059641
    169 Ca1         2.2030    0.0880   -0.3030 Ca        1 MOL      1.750907
    170 O24         3.9280    0.8180    1.6170 oh        1 MOL     -1.003512
    171 H77         4.8410    0.6240    1.7970 ho        1 MOL      0.457701
    172 H78         3.5560    1.0640    2.4640 ho        1 MOL      0.457701
@<TRIPOS>BOND
     1    1    2 1   
     2    1    4 1   
     3    1    5 1   
     4    1    6 1   
     5    2    3 2   
     6    2    7 1   
     7    7    8 1   
     8    7   15 1   
     9    8    9 1   
    10    8   11 1   
    11    8   16 1   
    12    9   10 2   
    13    9   19 1   
    14   11   12 1   
    15   11   17 1   
    16   11   18 1   
    17   12   13 1   
    18   12   14 1   
    19   19   20 1   
    20   19   24 1   
    21   20   21 1   
    22   20   23 1   
    23   20   25 1   
    24   21   22 2   
    25   21   29 1   
    26   23   26 1   
    27   23   27 1   
    28   23   28 1   
    29   29   30 1   
    30   29   37 1   
    31   30   31 1   
    32   30   33 1   
    33   30   38 1   
    34   31   32 2   
    35   31   41 1   
    36   33   34 1   
    37   33   39 1   
    38   33   40 1   
    39   34   35 1   
    40   34   36 1   
    41   41   42 1   
    42   41   45 1   
    43   42   43 1   
    44   42   46 1   
    45   42   47 1   
    46   43   44 2   
    47   43   48 1   
    48   48   49 1   
    49   48   56 1   
    50   49   50 1   
    51   49   52 1   
    52   49   57 1   
    53   50   51 2   
    54   50   62 1   
    55   52   53 1   
    56   52   58 1   
    57   52   59 1   
    58   53   54 1   
    59   53   55 2   
    60   54   60 1   
    61   54   61 1   
    62   62   63 1   
    63   62   66 1   
    64   63   64 1   
    65   63   67 1   
    66   63   68 1   
    67   64   65 2   
    68   64   69 1   
    69   69   70 1   
    70   69   76 1   
    71   70   71 1   
    72   70   73 1   
    73   70   77 1   
    74   71   72 2   
    75   71   83 1   
    76   73   74 1   
    77   73   75 1   
    78   73   78 1   
    79   74   80 1   
    80   74   81 1   
    81   74   82 1   
    82   75   79 1   
    83   83   84 1   
    84   83   91 1   
    85   84   85 1   
    86   84   87 1   
    87   84   92 1   
    88   85   86 2   
    89   85  102 1   
    90   87   88 1   
    91   87   89 1   
    92   87   93 1   
    93   88   90 1   
    94   88   94 1   
    95   88   95 1   
    96   89   96 1   
    97   89   97 1   
    98   89   98 1   
    99   90   99 1   
   100   90  100 1   
   101   90  101 1   
   102  102  103 1   
   103  102  110 1   
   104  103  104 1   
   105  103  106 1   
   106  103  111 1   
   107  104  105 2   
   108  104  114 1   
   109  106  107 1   
   110  106  112 1   
   111  106  113 1   
   112  107  108 1   
   113  107  109 1   
   114  114  115 1   
   115  114  125 1   
   116  115  116 1   
   117  115  118 1   
   118  115  126 1   
   119  116  117 2   
   120  116  134 1   
   121  118  119 1   
   122  118  127 1   
   123  118  128 1   
   124  119  120 ar  
   125  119  121 ar  
   126  120  122 ar  
   127  120  129 1   
   128  121  123 ar  
   129  121  130 1   
   130  122  124 ar  
   131  122  131 1   
   132  123  124 ar  
   133  123  132 1   
   134  124  133 1   
   135  134  135 1   
   136  134  140 1   
   137  135  136 1   
   138  135  138 1   
   139  135  141 1   
   140  136  137 2   
   141  136  148 1   
   142  138  139 1   
   143  138  142 1   
   144  138  143 1   
   145  139  140 1   
   146  139  144 1   
   147  139  145 1   
   148  140  146 1   
   149  140  147 1   
   150  148  149 1   
   151  148  157 1   
   152  149  150 1   
   153  149  152 1   
   154  149  158 1   
   155  150  151 2   
   156  150  163 1   
   157  152  153 1   
   158  152  159 1   
   159  152  160 1   
   160  153  154 1   
   161  153  161 1   
   162  153  162 1   
   163  154  155 1   
   164  154  156 1   
   165  163  164 1   
   166  163  168 1   
   167  164  165 1   
   168  164  166 1   
   169  164  167 1   
   170  170  171 1   
   171  170  172 1   
@<TRIPOS>SUBSTRUCTURE
     1 MOL         1 TEMP              0 ****  ****    0 ROOT
