@<TRIPOS>MOLECULE
MOL
  189   185     1     0     0
SMALL
resp


@<TRIPOS>ATOM
      1 C1          0.0650    4.3190    5.5680 c3        1 MOL     -0.341936
      2 C2         -0.6990    3.7670    4.3240 c         1 MOL      0.684677
      3 O1         -0.8880    2.5250    4.2970 o         1 MOL     -0.606408
      4 H1         -0.3690    5.2740    5.8650 hc        1 MOL      0.087392
      5 H2         -0.0200    3.6100    6.3900 hc        1 MOL      0.087392
      6 H3          1.1160    4.4610    5.3160 hc        1 MOL      0.087392
      7 N1         -1.1740    4.5760    3.4520 n         1 MOL     -0.542691
      8 C3         -1.8580    4.2020    2.2690 c3        1 MOL      0.144619
      9 C4         -1.5920    5.2240    1.0680 c         1 MOL      0.381251
     10 O2         -1.8810    6.3710    1.1810 o         1 MOL     -0.537813
     11 C5         -3.3720    3.9390    2.5290 c3        1 MOL     -0.037888
     12 C6         -4.1010    3.0250    1.4990 c         1 MOL      0.659829
     13 O3         -5.2710    2.6660    1.8440 o         1 MOL     -0.692228
     14 O4         -3.5540    2.6830    0.4470 o         1 MOL     -0.692228
     15 H4         -0.9220    5.5450    3.5990 hn        1 MOL      0.305274
     16 H5         -1.4850    3.2240    1.9580 h1        1 MOL     -0.025967
     17 H6         -3.8910    4.8930    2.5950 hc        1 MOL      0.015496
     18 H7         -3.5600    3.4920    3.5030 hc        1 MOL      0.015496
     19 N2         -1.2060    4.6620   -0.0660 n         1 MOL      0.031845
     20 C7         -1.1090    5.3150   -1.3680 c3        1 MOL     -0.375085
     21 C8         -1.8730    4.7380   -2.6370 c         1 MOL      0.587135
     22 O5         -1.5920    5.1560   -3.7880 o         1 MOL     -0.557847
     23 C9          0.3950    5.5720   -1.6510 c3        1 MOL      0.393583
     24 C10         1.0640    4.2160   -1.8340 c3        1 MOL     -0.072392
     25 C11         1.0080    6.2920   -0.4400 c3        1 MOL     -0.216119
     26 C12         2.5280    4.0560   -2.2650 c3        1 MOL     -0.342598
     27 H8         -1.0200    3.6780   -0.1490 hn        1 MOL      0.200736
     28 H9         -1.5080    6.3110   -1.1880 h1        1 MOL      0.117096
     29 H10         0.5320    6.2170   -2.5250 hc        1 MOL     -0.069728
     30 H11         0.5000    3.8050   -2.6740 hc        1 MOL      0.052790
     31 H12         0.9120    3.6820   -0.8970 hc        1 MOL      0.052790
     32 H13         0.4960    7.2370   -0.2330 hc        1 MOL      0.021146
     33 H14         1.0930    5.6720    0.4570 hc        1 MOL      0.021146
     34 H15         2.0290    6.4960   -0.7400 hc        1 MOL      0.021146
     35 H16         3.2960    4.4600   -1.5940 hc        1 MOL      0.091466
     36 H17         2.6740    3.0020   -2.4970 hc        1 MOL      0.091466
     37 H18         2.6590    4.5540   -3.2210 hc        1 MOL      0.091466
     38 N3         -2.9550    3.9430   -2.4300 n         1 MOL     -0.368075
     39 C13        -3.7880    3.4590   -3.5390 c3        1 MOL      0.014899
     40 C14        -5.2600    3.1200   -3.0680 c         1 MOL      0.412417
     41 O6         -6.2310    3.4050   -3.7070 o         1 MOL     -0.559199
     42 C15        -3.1090    2.2580   -4.1800 c3        1 MOL     -0.198321
     43 C16        -2.6520    1.1680   -3.2240 c         1 MOL      0.715301
     44 O7         -3.2080    1.0170   -2.1100 o         1 MOL     -0.714125
     45 O8         -1.6860    0.3960   -3.5420 o         1 MOL     -0.714125
     46 H19        -3.0830    3.4590   -1.5430 hn        1 MOL      0.154042
     47 H20        -3.8460    4.2510   -4.2870 h1        1 MOL      0.089905
     48 H21        -2.2430    2.6590   -4.7010 hc        1 MOL      0.069014
     49 H22        -3.6060    1.7970   -5.0380 hc        1 MOL      0.069014
     50 N4         -5.4750    2.6630   -1.8410 n         1 MOL     -0.163389
     51 C17        -6.7700    2.3440   -1.2160 c3        1 MOL     -0.220035
     52 C18        -7.3360    0.9050   -1.4810 c         1 MOL      0.574325
     53 O9         -8.4890    0.6340   -1.2700 o         1 MOL     -0.600494
     54 H23        -4.7330    2.4100   -1.2030 hn        1 MOL      0.233181
     55 H24        -7.5560    3.0720   -1.4220 h1        1 MOL      0.108684
     56 H25        -6.6480    2.4740   -0.1440 h1        1 MOL      0.108684
     57 N5         -6.4290   -0.0400   -1.8370 n         1 MOL     -0.308367
     58 C19        -6.7100   -1.4470   -2.2280 c3        1 MOL      0.009743
     59 C20        -7.3650   -2.2820   -1.0940 c         1 MOL      0.423516
     60 O10        -8.0350   -3.2910   -1.4370 o         1 MOL     -0.550510
     61 C21        -5.4160   -2.0360   -2.8650 c3        1 MOL     -0.328981
     62 C22        -4.1850   -2.0520   -2.0080 c         1 MOL      0.821139
     63 O11        -4.1450   -1.4410   -0.9210 o         1 MOL     -0.670950
     64 O12        -3.2310   -2.7280   -2.4400 o         1 MOL     -0.670950
     65 H26        -5.4470    0.1870   -1.7460 hn        1 MOL      0.174006
     66 H27        -7.4760   -1.3200   -2.9950 h1        1 MOL      0.089341
     67 H28        -5.2950   -1.5360   -3.8310 hc        1 MOL      0.101020
     68 H29        -5.6580   -3.0640   -3.1260 hc        1 MOL      0.101020
     69 N6         -7.0630   -1.9150    0.1660 n         1 MOL     -0.103280
     70 C23        -7.3760   -2.7300    1.3160 c3        1 MOL     -0.188274
     71 C24        -6.2980   -3.7180    1.6720 c         1 MOL      0.570693
     72 O13        -6.5230   -4.8260    2.1920 o         1 MOL     -0.576247
     73 H30        -6.4980   -1.0790    0.2860 hn        1 MOL      0.195504
     74 H31        -8.2600   -3.3510    1.1780 h1        1 MOL      0.078869
     75 H32        -7.5360   -2.0210    2.1300 h1        1 MOL      0.078869
     76 N7         -5.0660   -3.3530    1.2790 n         1 MOL     -0.372959
     77 C25        -3.8430   -4.1090    1.5650 c3        1 MOL     -0.003714
     78 C26        -2.7450   -3.1130    1.9620 c         1 MOL      0.629857
     79 O14        -2.8190   -1.9220    1.6110 o         1 MOL     -0.566651
     80 C27        -3.3330   -4.8220    0.2930 c3        1 MOL      0.137288
     81 C28        -4.3410   -5.6170   -0.5090 c3        1 MOL     -0.363178
     82 C29        -3.6800   -6.3140   -1.7520 c         1 MOL      0.604980
     83 N8         -3.1520   -5.5050   -2.6300 n         1 MOL     -0.707659
     84 O15        -3.7420   -7.5260   -2.0030 o         1 MOL     -0.608649
     85 H33        -4.9250   -2.4790    0.7790 hn        1 MOL      0.145414
     86 H34        -3.9450   -4.8840    2.3220 h1        1 MOL      0.048523
     87 H35        -2.5370   -5.4810    0.6550 hc        1 MOL      0.002734
     88 H36        -2.9340   -4.0780   -0.3880 hc        1 MOL      0.002734
     89 H37        -5.2340   -5.0360   -0.7680 hc        1 MOL      0.126917
     90 H38        -4.6330   -6.4570    0.1160 hc        1 MOL      0.126917
     91 H39        -3.1710   -4.5090   -2.4460 hn        1 MOL      0.337876
     92 H40        -2.8050   -5.9190   -3.4790 hn        1 MOL      0.337876
     93 N9         -1.6750   -3.5840    2.6380 n         1 MOL     -0.776242
     94 C30        -0.5020   -2.7980    2.7990 c3        1 MOL      0.245990
     95 C31         0.4670   -3.2970    1.7090 c         1 MOL      0.542414
     96 O16         0.5360   -4.4980    1.4140 o         1 MOL     -0.596329
     97 C32         0.0870   -2.7660    4.2260 c3        1 MOL      0.268611
     98 C33         0.7530   -4.0900    4.6720 c3        1 MOL     -0.319209
     99 C34         1.1480   -1.6850    4.3220 c3        1 MOL     -0.319209
    100 H41        -1.5650   -4.5580    2.8710 hn        1 MOL      0.370640
    101 H42        -0.8100   -1.7760    2.5800 h1        1 MOL      0.071618
    102 H43        -0.7040   -2.4810    4.9210 hc        1 MOL     -0.022624
    103 H44         1.1010   -4.0670    5.7100 hc        1 MOL      0.059909
    104 H45         0.0000   -4.8770    4.5660 hc        1 MOL      0.059909
    105 H46         1.5900   -4.4250    4.0610 hc        1 MOL      0.059909
    106 H47         0.8200   -0.6700    4.0900 hc        1 MOL      0.059909
    107 H48         1.4910   -1.7450    5.3630 hc        1 MOL      0.059909
    108 H49         1.9200   -1.9760    3.6050 hc        1 MOL      0.059909
    109 N10         1.2070   -2.3160    1.1300 n         1 MOL     -0.098936
    110 C35         2.3190   -2.5490    0.1510 c3        1 MOL      0.038328
    111 C36         3.7140   -2.4060    0.8420 c         1 MOL      0.256530
    112 O17         3.8310   -1.6880    1.8410 o         1 MOL     -0.341465
    113 C37         2.2010   -1.5700   -0.9910 c3        1 MOL     -0.138112
    114 C38         3.3330   -1.6520   -2.0610 c         1 MOL      0.666975
    115 N11         3.4090   -2.7380   -2.7610 n         1 MOL     -0.765580
    116 O18         4.1250   -0.7560   -2.0430 o         1 MOL     -0.513307
    117 H50         0.9850   -1.3620    1.3690 hn        1 MOL     -0.089121
    118 H51         2.1700   -3.5610   -0.2060 h1        1 MOL      0.041059
    119 H52         2.1090   -0.5570   -0.6230 hc        1 MOL      0.077486
    120 H53         1.3180   -1.8330   -1.5760 hc        1 MOL      0.077486
    121 H54         2.8190   -3.5520   -2.6320 hn        1 MOL      0.359747
    122 H55         4.1410   -2.8370   -3.4510 hn        1 MOL      0.359747
    123 N12         4.7820   -2.9060    0.2250 n         1 MOL     -0.218659
    124 C39         6.0690   -2.7370    0.8660 c3        1 MOL      0.074270
    125 C40         6.6190   -1.3280    0.8890 c         1 MOL      0.473003
    126 O19         7.2970   -0.9580    1.8980 o         1 MOL     -0.587980
    127 C41         7.2110   -3.5330    0.2320 c3        1 MOL     -0.138824
    128 C42         7.6590   -3.0860   -1.1520 ca        1 MOL     -0.012876
    129 C43         8.8550   -2.3840   -1.3330 ca        1 MOL     -0.089009
    130 C44         7.1250   -3.6410   -2.3360 ca        1 MOL     -0.089009
    131 C45         9.3910   -2.1150   -2.6180 ca        1 MOL     -0.391067
    132 C46         7.7350   -3.4780   -3.6200 ca        1 MOL     -0.391067
    133 C47         8.8090   -2.6240   -3.7640 ca        1 MOL      0.496979
    134 O20         9.2170   -2.2840   -4.9670 oh        1 MOL     -0.537507
    135 H56         4.8280   -3.3440   -0.6810 hn        1 MOL      0.152834
    136 H57         6.0980   -3.0280    1.9210 h1        1 MOL      0.060583
    137 H58         6.8910   -4.5800    0.2310 hc        1 MOL      0.060453
    138 H59         8.0670   -3.5230    0.9080 hc        1 MOL      0.060453
    139 H60         9.3830   -1.9280   -0.5060 ha        1 MOL      0.123785
    140 H61         6.3410   -4.3810   -2.3220 ha        1 MOL      0.123785
    141 H62        10.2340   -1.4540   -2.7590 ha        1 MOL      0.164415
    142 H63         7.2410   -3.8970   -4.4890 ha        1 MOL      0.164415
    143 H64         9.8870   -1.5930   -4.9650 ho        1 MOL      0.410375
    144 N13         6.1720   -0.3470    0.0640 n         1 MOL     -0.319042
    145 C48         6.6120    1.1050    0.2030 c3        1 MOL     -0.017779
    146 C49         5.8810    1.7820    1.3590 c         1 MOL      0.431274
    147 O21         6.4430    2.7280    1.8890 o         1 MOL     -0.529993
    148 C50         6.3030    1.8670   -1.0300 c3        1 MOL      0.119620
    149 C51         7.2540    1.3970   -2.1550 c3        1 MOL     -0.155368
    150 C52         7.3470    2.3600   -3.3740 c         1 MOL      0.663533
    151 O22         7.5010    3.5910   -3.1360 o         1 MOL     -0.726008
    152 O23         7.5570    1.8840   -4.4860 o         1 MOL     -0.726008
    153 H65         5.5330   -0.4610   -0.7080 hn        1 MOL      0.237279
    154 H66         7.6760    1.2420    0.4120 h1        1 MOL      0.094400
    155 H67         6.4410    2.9410   -0.9170 hc        1 MOL     -0.024416
    156 H68         5.2820    1.7360   -1.3790 hc        1 MOL     -0.024416
    157 H69         6.8430    0.4880   -2.6020 hc        1 MOL      0.026265
    158 H70         8.2330    1.3600   -1.6790 hc        1 MOL      0.026265
    159 N14         4.6470    1.3430    1.6650 n         1 MOL     -0.182309
    160 C53         3.6960    1.9300    2.6200 c3        1 MOL     -0.142319
    161 C54         4.1810    1.5150    4.0120 c         1 MOL      0.471173
    162 O24         4.1360    2.3250    4.9020 o         1 MOL     -0.561678
    163 C55         2.2900    1.4260    2.3960 c3        1 MOL     -0.002880
    164 C56         1.5970    1.9170    1.0830 c3        1 MOL     -0.058951
    165 C57         0.2900    1.3120    0.6780 c         1 MOL      0.781717
    166 O25        -0.4970    1.7450   -0.1800 o         1 MOL     -0.716951
    167 O26        -0.0910    0.3140    1.2970 o         1 MOL     -0.716951
    168 H71         4.2490    0.6170    1.0730 hn        1 MOL      0.177651
    169 H72         3.7900    3.0140    2.4990 h1        1 MOL      0.103147
    170 H73         1.7200    1.8000    3.2490 hc        1 MOL      0.048927
    171 H74         2.3280    0.3370    2.4590 hc        1 MOL      0.048927
    172 H75         2.2890    1.7560    0.2570 hc        1 MOL      0.001470
    173 H76         1.3930    2.9710    1.2310 hc        1 MOL      0.001470
    174 N15         4.7020    0.2930    4.0560 n         1 MOL     -0.035003
    175 C58         5.4780   -0.2470    5.1360 c3        1 MOL     -0.363155
    176 H77         6.0810   -1.0790    4.7700 h1        1 MOL      0.115820
    177 H78         6.1320    0.5270    5.5370 h1        1 MOL      0.115820
    178 H79         4.8100   -0.6010    5.9220 h1        1 MOL      0.115820
    179 H80         4.5880   -0.2890    3.2380 hn        1 MOL      0.128401
    180 Ca1        -2.6170    0.2520    0.3480 Ca        1 MOL      1.763825
    181 O27        -2.6000    0.6610    3.1600 oh        1 MOL     -0.844711
    182 H81        -3.0050    0.3970    3.9910 ho        1 MOL      0.405231
    183 H82        -1.8640    1.2130    3.4220 ho        1 MOL      0.405231
    184 O28        -1.2420   -1.4470   -1.2700 oh        1 MOL     -0.844711
    185 H83        -1.9320   -2.0530   -1.5310 ho        1 MOL      0.405231
    186 H84        -1.1900   -0.8180   -1.9970 ho        1 MOL      0.405231
    187 O29        -5.3080    0.1640    1.2470 oh        1 MOL     -0.844711
    188 H85        -5.3440    1.0730    1.5550 ho        1 MOL      0.405231
    189 H86        -5.5060   -0.3550    2.0220 ho        1 MOL      0.405231
@<TRIPOS>BOND
     1    1    2 1   
     2    1    4 1   
     3    1    5 1   
     4    1    6 1   
     5    2    3 2   
     6    2    7 1   
     7    7    8 1   
     8    7   15 1   
     9    8    9 1   
    10    8   11 1   
    11    8   16 1   
    12    9   10 2   
    13    9   19 1   
    14   11   12 1   
    15   11   17 1   
    16   11   18 1   
    17   12   13 1   
    18   12   14 1   
    19   19   20 1   
    20   19   27 1   
    21   20   21 1   
    22   20   23 1   
    23   20   28 1   
    24   21   22 2   
    25   21   38 1   
    26   23   24 1   
    27   23   25 1   
    28   23   29 1   
    29   24   26 1   
    30   24   30 1   
    31   24   31 1   
    32   25   32 1   
    33   25   33 1   
    34   25   34 1   
    35   26   35 1   
    36   26   36 1   
    37   26   37 1   
    38   38   39 1   
    39   38   46 1   
    40   39   40 1   
    41   39   42 1   
    42   39   47 1   
    43   40   41 2   
    44   40   50 1   
    45   42   43 1   
    46   42   48 1   
    47   42   49 1   
    48   43   44 1   
    49   43   45 1   
    50   50   51 1   
    51   50   54 1   
    52   51   52 1   
    53   51   55 1   
    54   51   56 1   
    55   52   53 2   
    56   52   57 1   
    57   57   58 1   
    58   57   65 1   
    59   58   59 1   
    60   58   61 1   
    61   58   66 1   
    62   59   60 2   
    63   59   69 1   
    64   61   62 1   
    65   61   67 1   
    66   61   68 1   
    67   62   63 1   
    68   62   64 1   
    69   69   70 1   
    70   69   73 1   
    71   70   71 1   
    72   70   74 1   
    73   70   75 1   
    74   71   72 2   
    75   71   76 1   
    76   76   77 1   
    77   76   85 1   
    78   77   78 1   
    79   77   80 1   
    80   77   86 1   
    81   78   79 2   
    82   78   93 1   
    83   80   81 1   
    84   80   87 1   
    85   80   88 1   
    86   81   82 1   
    87   81   89 1   
    88   81   90 1   
    89   82   83 1   
    90   82   84 2   
    91   83   91 1   
    92   83   92 1   
    93   93   94 1   
    94   93  100 1   
    95   94   95 1   
    96   94   97 1   
    97   94  101 1   
    98   95   96 2   
    99   95  109 1   
   100   97   98 1   
   101   97   99 1   
   102   97  102 1   
   103   98  103 1   
   104   98  104 1   
   105   98  105 1   
   106   99  106 1   
   107   99  107 1   
   108   99  108 1   
   109  109  110 1   
   110  109  117 1   
   111  110  111 1   
   112  110  113 1   
   113  110  118 1   
   114  111  112 2   
   115  111  123 1   
   116  113  114 1   
   117  113  119 1   
   118  113  120 1   
   119  114  115 1   
   120  114  116 2   
   121  115  121 1   
   122  115  122 1   
   123  123  124 1   
   124  123  135 1   
   125  124  125 1   
   126  124  127 1   
   127  124  136 1   
   128  125  126 2   
   129  125  144 1   
   130  127  128 1   
   131  127  137 1   
   132  127  138 1   
   133  128  129 ar  
   134  128  130 ar  
   135  129  131 ar  
   136  129  139 1   
   137  130  132 ar  
   138  130  140 1   
   139  131  133 ar  
   140  131  141 1   
   141  132  133 ar  
   142  132  142 1   
   143  133  134 1   
   144  134  143 1   
   145  144  145 1   
   146  144  153 1   
   147  145  146 1   
   148  145  148 1   
   149  145  154 1   
   150  146  147 2   
   151  146  159 1   
   152  148  149 1   
   153  148  155 1   
   154  148  156 1   
   155  149  150 1   
   156  149  157 1   
   157  149  158 1   
   158  150  151 1   
   159  150  152 1   
   160  159  160 1   
   161  159  168 1   
   162  160  161 1   
   163  160  163 1   
   164  160  169 1   
   165  161  162 2   
   166  161  174 1   
   167  163  164 1   
   168  163  170 1   
   169  163  171 1   
   170  164  165 1   
   171  164  172 1   
   172  164  173 1   
   173  165  166 1   
   174  165  167 1   
   175  174  175 1   
   176  174  179 1   
   177  175  176 1   
   178  175  177 1   
   179  175  178 1   
   180  181  182 1   
   181  181  183 1   
   182  184  185 1   
   183  184  186 1   
   184  187  188 1   
   185  187  189 1   
@<TRIPOS>SUBSTRUCTURE
     1 MOL         1 TEMP              0 ****  ****    0 ROOT
