@<TRIPOS>MOLECULE
MOL
  182   178     1     0     0
SMALL
resp


@<TRIPOS>ATOM
      1 C1          1.9060    1.9910    6.2900 c3        1 MOL     -0.199600
      2 C2          1.5770    1.6940    4.8330 c         1 MOL      0.742868
      3 O1          2.5580    1.4700    4.0880 o         1 MOL     -0.601444
      4 H1          1.7950    3.0590    6.4760 hc        1 MOL      0.048474
      5 H2          1.2250    1.4380    6.9380 hc        1 MOL      0.048474
      6 H3          2.9330    1.6910    6.5000 hc        1 MOL      0.048474
      7 N1          0.3080    1.6660    4.3770 n         1 MOL     -0.597570
      8 C3         -0.2010    1.8120    2.9680 c3        1 MOL     -0.055839
      9 C4         -0.0470    3.3090    2.4360 c         1 MOL      0.607843
     10 O2         -0.6900    4.2070    2.9910 o         1 MOL     -0.554032
     11 C5         -1.6730    1.3040    3.0080 c3        1 MOL     -0.099584
     12 C6         -2.4430    1.5530    1.6870 c         1 MOL      0.897322
     13 O3         -1.8520    1.8910    0.6480 o         1 MOL     -0.794005
     14 O4         -3.6600    1.3130    1.6830 o         1 MOL     -0.794005
     15 H4         -0.4690    1.6080    5.0280 hn        1 MOL      0.323340
     16 H5          0.3020    1.0840    2.3350 h1        1 MOL      0.091304
     17 H6         -2.2240    1.8400    3.7730 hc        1 MOL      0.025725
     18 H7         -1.6250    0.2220    3.1240 hc        1 MOL      0.025725
     19 N2          0.7830    3.5310    1.4320 n         1 MOL     -0.257003
     20 C7          1.3660    4.8220    0.9270 c3        1 MOL     -0.217896
     21 C8          0.3380    5.5760   -0.0160 c         1 MOL      0.505656
     22 O5          0.5490    6.7440   -0.3150 o         1 MOL     -0.558738
     23 C9          2.7270    4.5890    0.2220 c3        1 MOL      0.225569
     24 C10         3.6510    5.7660    0.1730 c3        1 MOL     -0.031526
     25 C11         4.8110    5.4840   -0.7550 c3        1 MOL      0.034403
     26 C12         6.0790    6.0960   -0.2590 c3        1 MOL     -0.116321
     27 N3          7.0910    5.6170   -1.2020 n4        1 MOL     -0.078403
     28 H8          1.0320    2.6690    0.9730 hn        1 MOL      0.126348
     29 H9          1.5920    5.4650    1.7780 h1        1 MOL      0.128531
     30 H10         2.5190    4.2640   -0.8030 hc        1 MOL     -0.000126
     31 H11         3.1710    3.7600    0.7540 hc        1 MOL     -0.000126
     32 H12         3.9410    5.9240    1.2080 hc        1 MOL      0.021038
     33 H13         3.1170    6.6570   -0.1630 hc        1 MOL      0.021038
     34 H14         4.5080    5.9230   -1.7120 hc        1 MOL      0.008244
     35 H15         4.7880    4.3930   -0.8610 hc        1 MOL      0.008244
     36 H16         6.2610    5.6760    0.7230 hx        1 MOL      0.119677
     37 H17         5.9930    7.1850   -0.2710 hx        1 MOL      0.119677
     38 H18         6.9170    6.0020   -2.1240 hn        1 MOL      0.257044
     39 H19         8.0340    5.9200   -0.9950 hn        1 MOL      0.257044
     40 H20         7.1500    4.6330   -1.4360 hn        1 MOL      0.257044
     41 N4         -0.7270    4.9490   -0.5840 n         1 MOL     -0.230258
     42 C13        -1.7480    5.5640   -1.3870 c3        1 MOL      0.050181
     43 C14        -3.1370    5.4130   -0.7620 c         1 MOL      0.351849
     44 O6         -4.0690    6.2310   -1.1270 o         1 MOL     -0.547299
     45 C15        -1.7700    5.1120   -2.8580 c3        1 MOL     -0.218664
     46 C16        -2.0440    3.6020   -3.0260 c         1 MOL      0.756136
     47 O7         -2.0790    3.0950   -4.1290 o         1 MOL     -0.705279
     48 O8         -2.0040    2.8790   -1.9830 o         1 MOL     -0.705279
     49 H21        -0.8000    3.9640   -0.3770 hn        1 MOL      0.091437
     50 H22        -1.5520    6.6320   -1.4750 h1        1 MOL      0.106979
     51 H23        -0.8630    5.4240   -3.3610 hc        1 MOL      0.070470
     52 H24        -2.5270    5.6580   -3.4260 hc        1 MOL      0.070470
     53 N5         -3.3240    4.5310    0.2030 n         1 MOL     -0.010580
     54 C17        -4.4340    4.4190    1.0310 c3        1 MOL     -0.378481
     55 C18        -5.4830    3.4260    0.5940 c         1 MOL      0.664363
     56 O9         -6.5140    3.2590    1.2220 o         1 MOL     -0.589617
     57 H25        -2.6000    3.8990    0.5090 hn        1 MOL      0.124539
     58 H26        -5.0110    5.3450    0.9960 h1        1 MOL      0.156207
     59 H27        -4.1710    4.2350    2.0770 h1        1 MOL      0.156207
     60 N6         -5.1310    2.5740   -0.4160 n         1 MOL     -0.516827
     61 C19        -6.0500    1.7260   -1.1810 c3        1 MOL      0.122818
     62 C20        -6.6010    0.5410   -0.4260 c         1 MOL      0.229084
     63 O10        -7.5870   -0.0800   -0.8010 o         1 MOL     -0.516200
     64 C21        -5.5740    1.3690   -2.5770 c3        1 MOL     -0.209832
     65 C22        -4.7070    0.0590   -2.4570 c         1 MOL      0.486497
     66 N7         -4.9850   -0.8490   -3.2990 n         1 MOL     -0.503097
     67 O11        -3.8440   -0.0730   -1.6110 o         1 MOL     -0.586288
     68 H28        -4.1290    2.5100   -0.4670 hn        1 MOL      0.301727
     69 H29        -6.9510    2.2670   -1.4590 h1        1 MOL      0.110065
     70 H30        -4.9150    2.0600   -3.1050 hc        1 MOL      0.083263
     71 H31        -6.5140    1.1520   -3.0770 hc        1 MOL      0.083263
     72 H32        -5.6450   -0.6630   -4.0330 hn        1 MOL      0.296029
     73 H33        -4.3790   -1.6470   -3.3970 hn        1 MOL      0.296029
     74 N8         -6.0110    0.2370    0.7120 n         1 MOL      0.130332
     75 C23        -6.4050   -0.7930    1.7020 c3        1 MOL     -0.616060
     76 C24        -5.4460   -2.0140    1.7920 c         1 MOL      0.826303
     77 O12        -5.6860   -2.8890    2.6290 o         1 MOL     -0.605827
     78 H34        -5.2580    0.8600    0.9730 hn        1 MOL      0.276764
     79 H35        -7.3930   -1.1470    1.3730 h1        1 MOL      0.207986
     80 H36        -6.4540   -0.2770    2.6620 h1        1 MOL      0.207986
     81 N9         -4.4130   -2.0520    0.9720 n         1 MOL     -0.670918
     82 C25        -3.4700   -3.1570    0.7580 c3        1 MOL      0.318406
     83 C26        -1.9960   -2.6500    0.7670 c         1 MOL      0.573735
     84 O13        -1.7010   -1.5940    0.2020 o         1 MOL     -0.627427
     85 C27        -3.9650   -3.9860   -0.4380 c3        1 MOL     -0.116837
     86 C28        -5.3610   -4.5650   -0.3450 ca        1 MOL     -0.057448
     87 C29        -6.4710   -3.8870   -0.9270 ca        1 MOL      0.039118
     88 C30        -5.5310   -5.8970    0.1040 ca        1 MOL      0.039118
     89 C31        -7.7700   -4.4250   -0.8730 ca        1 MOL     -0.509466
     90 C32        -6.8250   -6.4720    0.0550 ca        1 MOL     -0.509466
     91 C33        -7.9380   -5.6420   -0.2820 ca        1 MOL      0.587731
     92 O14        -9.1520   -6.0870    0.0850 oh        1 MOL     -0.502527
     93 H37        -4.2220   -1.2670    0.3640 hn        1 MOL      0.351321
     94 H38        -3.5280   -3.8400    1.6090 h1        1 MOL     -0.022290
     95 H39        -3.2600   -4.8150   -0.4630 hc        1 MOL      0.010408
     96 H40        -3.8420   -3.3330   -1.3040 hc        1 MOL      0.010408
     97 H41        -6.3080   -2.9310   -1.3960 ha        1 MOL      0.086962
     98 H42        -4.7020   -6.5730    0.2100 ha        1 MOL      0.086962
     99 H43        -8.6070   -3.8370   -1.2120 ha        1 MOL      0.203798
    100 H44        -6.9880   -7.4280    0.5240 ha        1 MOL      0.203798
    101 H45        -9.1260   -6.9680    0.4470 ho        1 MOL      0.344938
    102 N10        -1.1100   -3.4740    1.3170 n         1 MOL     -0.530783
    103 C34         0.3170   -3.1270    1.4180 c3        1 MOL      0.112283
    104 C35         1.1920   -3.9480    0.4570 c         1 MOL      0.367589
    105 O15         1.4390   -5.1300    0.7680 o         1 MOL     -0.526790
    106 C36         0.8580   -3.1240    2.8700 c3        1 MOL      0.042374
    107 C37         0.0620   -2.1260    3.7920 c3        1 MOL      0.374768
    108 C38         2.3110   -2.6870    3.0380 c3        1 MOL     -0.281104
    109 C39         0.4180   -2.0800    5.2680 c3        1 MOL     -0.295614
    110 H46        -1.4540   -4.3040    1.7900 hn        1 MOL      0.330632
    111 H47         0.3660   -2.1140    1.0110 h1        1 MOL     -0.006040
    112 H48         0.7500   -4.1240    3.2910 hc        1 MOL      0.011167
    113 H49        -0.9860   -2.4260    3.7440 hc        1 MOL     -0.090744
    114 H50         0.2500   -1.0910    3.5070 hc        1 MOL     -0.090744
    115 H51         2.6940   -2.9440    4.0210 hc        1 MOL      0.061840
    116 H52         2.9260   -3.1400    2.2600 hc        1 MOL      0.061840
    117 H53         2.4000   -1.6000    2.9580 hc        1 MOL      0.061840
    118 H54         0.5170   -3.0600    5.7390 hc        1 MOL      0.060425
    119 H55         1.3740   -1.5700    5.4000 hc        1 MOL      0.060425
    120 H56        -0.3280   -1.4920    5.8030 hc        1 MOL      0.060425
    121 N11         1.7950   -3.3370   -0.5610 n         1 MOL     -0.165300
    122 C40         2.7640   -3.9910   -1.4610 c3        1 MOL     -0.110529
    123 C41         4.1920   -3.9100   -0.8420 c         1 MOL      0.402207
    124 O16         4.5080   -3.0650   -0.0680 o         1 MOL     -0.199931
    125 C42         2.7570   -3.4650   -2.8890 c3        1 MOL      0.156771
    126 O17         2.8010   -2.0420   -2.9350 oh        1 MOL     -0.514318
    127 H57         1.4770   -2.4010   -0.7320 hn        1 MOL      0.290872
    128 H58         2.5420   -5.0590   -1.5160 h1        1 MOL      0.069542
    129 H59         1.7820   -3.7940   -3.2540 h1        1 MOL      0.017362
    130 H60         3.6180   -3.9210   -3.3930 h1        1 MOL      0.017362
    131 H61         2.2660   -1.8240   -2.1810 ho        1 MOL      0.222930
    132 N12         5.1510   -4.8410   -1.2160 n         1 MOL     -0.361136
    133 C43         6.4770   -4.8370   -0.6810 c3        1 MOL     -0.094006
    134 C44         7.2570   -3.5850   -0.9860 c         1 MOL      0.613285
    135 O18         8.0630   -3.1520   -0.1960 o         1 MOL     -0.537195
    136 C45         7.1580   -6.1400   -1.1510 c3        1 MOL     -0.285796
    137 H62         4.9100   -5.6700   -1.7390 hn        1 MOL      0.270797
    138 H63         6.3080   -5.0470    0.3780 h1        1 MOL      0.129282
    139 H64         6.6620   -7.0350   -0.7760 hc        1 MOL      0.098073
    140 H65         7.0960   -6.1720   -2.2450 hc        1 MOL      0.098073
    141 H66         8.2320   -6.1950   -0.9560 hc        1 MOL      0.098073
    142 N13         6.9610   -2.9510   -2.1110 n         1 MOL     -0.407464
    143 C46         7.5260   -1.6470   -2.4760 c3        1 MOL      0.030089
    144 C47         7.1440   -0.4630   -1.5160 c         1 MOL      0.355222
    145 O19         7.8120    0.5950   -1.5180 o         1 MOL     -0.542373
    146 C48         6.9450   -1.4740   -3.9070 c3        1 MOL     -0.229632
    147 H67         6.2770   -3.2820   -2.7680 hn        1 MOL      0.279283
    148 H68         8.6010   -1.7600   -2.6090 h1        1 MOL      0.106626
    149 H69         7.3730   -0.6090   -4.3950 hc        1 MOL      0.074025
    150 H70         7.0870   -2.3680   -4.5310 hc        1 MOL      0.074025
    151 H71         5.8670   -1.3220   -3.8720 hc        1 MOL      0.074025
    152 N14         6.1310   -0.6610   -0.6770 n         1 MOL      0.052691
    153 C49         5.6040    0.2630    0.3120 c3        1 MOL     -0.220263
    154 C50         6.2280   -0.1280    1.7040 c         1 MOL      0.555523
    155 O20         6.7120    0.7320    2.3870 o         1 MOL     -0.559167
    156 C51         4.0350    0.2380    0.4020 c3        1 MOL      0.085931
    157 C52         3.3480    0.8710   -0.7800 c3        1 MOL      0.213283
    158 C53         1.7980    0.4990   -0.7220 c         1 MOL      0.402019
    159 O21         1.3670   -0.7040   -0.9440 o         1 MOL     -0.544328
    160 O22         0.9130    1.3050   -0.3570 o         1 MOL     -0.544328
    161 H72         5.7370   -1.5880   -0.7180 hn        1 MOL     -0.000275
    162 H73         5.9380    1.2850    0.1120 h1        1 MOL      0.076819
    163 H74         3.8600    0.8540    1.2820 hc        1 MOL     -0.000298
    164 H75         3.8630   -0.8320    0.4680 hc        1 MOL     -0.000298
    165 H76         3.8460    0.5120   -1.6830 hc        1 MOL     -0.077025
    166 H77         3.4950    1.9450   -0.8740 hc        1 MOL     -0.077025
    167 N15         6.1810   -1.3980    1.9710 n         1 MOL     -0.127671
    168 C54         6.8560   -1.9440    3.1910 c3        1 MOL     -0.368737
    169 H78         6.7280   -1.2470    4.0190 h1        1 MOL      0.146456
    170 H79         6.4110   -2.9040    3.4540 h1        1 MOL      0.146456
    171 H80         7.9190   -2.0770    2.9900 h1        1 MOL      0.146456
    172 H81         5.7990   -2.0040    1.2690 hn        1 MOL      0.088756
    173 Ca1        -1.2330    0.5090   -1.4120 Ca        1 MOL      1.687795
    174 O23        -2.1660    0.5250   -4.1090 oh        1 MOL     -0.802595
    175 H82        -2.0060    1.4520   -3.9570 ho        1 MOL      0.393396
    176 H83        -2.4650    0.4710   -5.0190 ho        1 MOL      0.393396
    177 O24         0.4840    0.7280   -3.6310 oh        1 MOL     -0.802595
    178 H84         0.3950    0.3470   -4.5060 ho        1 MOL      0.393396
    179 H85         1.2520    1.2930   -3.6920 ho        1 MOL      0.393396
    180 O25        -1.0480   -1.7000   -2.8550 oh        1 MOL     -0.802595
    181 H86        -0.9490   -1.4790   -3.7860 ho        1 MOL      0.393396
    182 H87        -0.7840   -2.6240   -2.7970 ho        1 MOL      0.393396
@<TRIPOS>BOND
     1    1    2 1   
     2    1    4 1   
     3    1    5 1   
     4    1    6 1   
     5    2    3 2   
     6    2    7 1   
     7    7    8 1   
     8    7   15 1   
     9    8    9 1   
    10    8   11 1   
    11    8   16 1   
    12    9   10 2   
    13    9   19 1   
    14   11   12 1   
    15   11   17 1   
    16   11   18 1   
    17   12   13 1   
    18   12   14 1   
    19   19   20 1   
    20   19   28 1   
    21   20   21 1   
    22   20   23 1   
    23   20   29 1   
    24   21   22 2   
    25   21   41 1   
    26   23   24 1   
    27   23   30 1   
    28   23   31 1   
    29   24   25 1   
    30   24   32 1   
    31   24   33 1   
    32   25   26 1   
    33   25   34 1   
    34   25   35 1   
    35   26   27 1   
    36   26   36 1   
    37   26   37 1   
    38   27   38 1   
    39   27   39 1   
    40   27   40 1   
    41   41   42 1   
    42   41   49 1   
    43   42   43 1   
    44   42   45 1   
    45   42   50 1   
    46   43   44 2   
    47   43   53 1   
    48   45   46 1   
    49   45   51 1   
    50   45   52 1   
    51   46   47 1   
    52   46   48 1   
    53   53   54 1   
    54   53   57 1   
    55   54   55 1   
    56   54   58 1   
    57   54   59 1   
    58   55   56 2   
    59   55   60 1   
    60   60   61 1   
    61   60   68 1   
    62   61   62 1   
    63   61   64 1   
    64   61   69 1   
    65   62   63 2   
    66   62   74 1   
    67   64   65 1   
    68   64   70 1   
    69   64   71 1   
    70   65   66 1   
    71   65   67 2   
    72   66   72 1   
    73   66   73 1   
    74   74   75 1   
    75   74   78 1   
    76   75   76 1   
    77   75   79 1   
    78   75   80 1   
    79   76   77 2   
    80   76   81 1   
    81   81   82 1   
    82   81   93 1   
    83   82   83 1   
    84   82   85 1   
    85   82   94 1   
    86   83   84 2   
    87   83  102 1   
    88   85   86 1   
    89   85   95 1   
    90   85   96 1   
    91   86   87 ar  
    92   86   88 ar  
    93   87   89 ar  
    94   87   97 1   
    95   88   90 ar  
    96   88   98 1   
    97   89   91 ar  
    98   89   99 1   
    99   90   91 ar  
   100   90  100 1   
   101   91   92 1   
   102   92  101 1   
   103  102  103 1   
   104  102  110 1   
   105  103  104 1   
   106  103  106 1   
   107  103  111 1   
   108  104  105 2   
   109  104  121 1   
   110  106  107 1   
   111  106  108 1   
   112  106  112 1   
   113  107  109 1   
   114  107  113 1   
   115  107  114 1   
   116  108  115 1   
   117  108  116 1   
   118  108  117 1   
   119  109  118 1   
   120  109  119 1   
   121  109  120 1   
   122  121  122 1   
   123  121  127 1   
   124  122  123 1   
   125  122  125 1   
   126  122  128 1   
   127  123  124 2   
   128  123  132 1   
   129  125  126 1   
   130  125  129 1   
   131  125  130 1   
   132  126  131 1   
   133  132  133 1   
   134  132  137 1   
   135  133  134 1   
   136  133  136 1   
   137  133  138 1   
   138  134  135 2   
   139  134  142 1   
   140  136  139 1   
   141  136  140 1   
   142  136  141 1   
   143  142  143 1   
   144  142  147 1   
   145  143  144 1   
   146  143  146 1   
   147  143  148 1   
   148  144  145 2   
   149  144  152 1   
   150  146  149 1   
   151  146  150 1   
   152  146  151 1   
   153  152  153 1   
   154  152  161 1   
   155  153  154 1   
   156  153  156 1   
   157  153  162 1   
   158  154  155 2   
   159  154  167 1   
   160  156  157 1   
   161  156  163 1   
   162  156  164 1   
   163  157  158 1   
   164  157  165 1   
   165  157  166 1   
   166  158  159 1   
   167  158  160 1   
   168  167  168 1   
   169  167  172 1   
   170  168  169 1   
   171  168  170 1   
   172  168  171 1   
   173  174  175 1   
   174  174  176 1   
   175  177  178 1   
   176  177  179 1   
   177  180  181 1   
   178  180  182 1   
@<TRIPOS>SUBSTRUCTURE
     1 MOL         1 TEMP              0 ****  ****    0 ROOT
