@<TRIPOS>MOLECULE
MOL
  175   173     1     0     0
SMALL
resp


@<TRIPOS>ATOM
      1 C1          0.4470    4.6400    5.3070 c3        1 MOL     -0.303252
      2 C2         -0.2550    4.2660    3.9890 c         1 MOL      0.680952
      3 O1          0.4260    4.1140    2.9920 o         1 MOL     -0.534667
      4 H1          0.2820    5.6970    5.5180 hc        1 MOL      0.074894
      5 H2          0.0380    4.0400    6.1190 hc        1 MOL      0.074894
      6 H3          1.5160    4.4500    5.2170 hc        1 MOL      0.074894
      7 N1         -1.5430    3.9050    3.9040 n         1 MOL     -0.670467
      8 C3         -2.1950    3.5690    2.6520 c3        1 MOL      0.141274
      9 C4         -2.0070    4.7200    1.5950 c         1 MOL      0.516941
     10 O2         -2.0340    5.9360    1.8350 o         1 MOL     -0.549996
     11 C5         -3.6540    3.2620    2.9390 c3        1 MOL     -0.327680
     12 C6         -4.3260    2.3880    1.8280 c         1 MOL      0.686965
     13 O3         -5.4680    1.9680    2.0450 o         1 MOL     -0.650359
     14 O4         -3.6300    2.0090    0.8250 o         1 MOL     -0.650359
     15 H4         -2.0830    3.9690    4.7520 hn        1 MOL      0.327116
     16 H5         -1.7400    2.6720    2.2160 h1        1 MOL      0.163190
     17 H6         -4.2320    4.1410    3.2030 hc        1 MOL      0.082014
     18 H7         -3.7330    2.6600    3.8470 hc        1 MOL      0.082014
     19 N2         -2.1700    4.3080    0.2900 n         1 MOL     -0.385292
     20 C7         -2.4090    5.1900   -0.8420 c3        1 MOL      0.244327
     21 C8         -3.5080    4.8940   -1.8240 c         1 MOL      0.571293
     22 O5         -3.7240    5.6290   -2.7650 o         1 MOL     -0.581957
     23 C9         -1.0870    5.3680   -1.5680 c3        1 MOL     -0.327840
     24 H8         -2.0050    3.3210    0.1170 hn        1 MOL      0.263330
     25 H9         -2.7210    6.1240   -0.3670 h1        1 MOL     -0.002434
     26 H10        -0.3690    5.8460   -0.9050 hc        1 MOL      0.079772
     27 H11        -0.6290    4.3800   -1.6220 hc        1 MOL      0.079772
     28 H12        -1.2420    5.8250   -2.5390 hc        1 MOL      0.079772
     29 N3         -4.2150    3.8180   -1.5040 n         1 MOL     -0.483894
     30 C10        -5.1880    3.2860   -2.5500 c3        1 MOL      0.024747
     31 C11        -6.4580    2.5800   -2.1090 c         1 MOL      0.519335
     32 O6         -7.4390    2.6040   -2.8330 o         1 MOL     -0.580703
     33 C12        -4.2780    2.5460   -3.5520 c3        1 MOL     -0.053231
     34 C13        -3.5080    1.3100   -3.1610 c         1 MOL      0.756005
     35 O7         -2.6250    0.9390   -3.9370 o         1 MOL     -0.718239
     36 O8         -3.6030    0.8310   -1.9930 o         1 MOL     -0.718239
     37 H13        -4.0230    3.2240   -0.7150 hn        1 MOL      0.200110
     38 H14        -5.5600    4.1890   -3.0330 h1        1 MOL      0.070307
     39 H15        -3.5050    3.1920   -3.9680 hc        1 MOL      0.014747
     40 H16        -4.8350    2.2670   -4.4410 hc        1 MOL      0.014747
     41 N4         -6.5190    1.8980   -0.9590 n         1 MOL     -0.247410
     42 C14        -7.6710    1.0220   -0.5730 c3        1 MOL     -0.328254
     43 C15        -7.6550   -0.4720   -0.9470 c         1 MOL      0.587755
     44 O9         -8.6320   -1.0850   -0.9180 o         1 MOL     -0.592830
     45 H17        -5.6180    1.8700   -0.4890 hn        1 MOL      0.173596
     46 H18        -8.5430    1.4410   -1.0720 h1        1 MOL      0.151230
     47 H19        -7.9010    1.1150    0.4940 h1        1 MOL      0.151230
     48 N5         -6.5140   -0.9830   -1.3970 n         1 MOL     -0.164890
     49 C16        -6.3440   -2.2800   -2.1070 c3        1 MOL      0.059459
     50 C17        -6.3570   -3.4800   -1.0410 c         1 MOL      0.350835
     51 O10        -6.4070   -4.6360   -1.4770 o         1 MOL     -0.540814
     52 C18        -5.1420   -2.2370   -2.9920 c3        1 MOL     -0.027788
     53 C19        -3.7340   -2.2110   -2.3480 c         1 MOL      0.490262
     54 N6         -2.7270   -2.3730   -3.1570 n         1 MOL     -0.450140
     55 O11        -3.5770   -2.0030   -1.1600 o         1 MOL     -0.570093
     56 H20        -5.6610   -0.4450   -1.4660 hn        1 MOL      0.096587
     57 H21        -7.2230   -2.4360   -2.7350 h1        1 MOL      0.070108
     58 H22        -5.1470   -1.3740   -3.6600 hc        1 MOL      0.000012
     59 H23        -5.0870   -3.1600   -3.5710 hc        1 MOL      0.000012
     60 H24        -3.0070   -2.6430   -4.0850 hn        1 MOL      0.277232
     61 H25        -1.7580   -2.4430   -2.8810 hn        1 MOL      0.277232
     62 N7         -6.2280   -3.2480    0.2390 n         1 MOL     -0.156713
     63 C20        -6.0620   -4.3220    1.2600 c3        1 MOL     -0.196010
     64 C21        -4.6770   -4.4390    1.8380 c         1 MOL      0.453969
     65 O12        -4.6430   -5.0510    2.9200 o         1 MOL     -0.592914
     66 H26        -6.4970   -2.2980    0.4610 hn        1 MOL      0.169907
     67 H27        -6.3820   -5.2870    0.8590 h1        1 MOL      0.118209
     68 H28        -6.7360   -4.0220    2.0530 h1        1 MOL      0.118209
     69 N8         -3.6200   -4.0920    1.1780 n         1 MOL     -0.072880
     70 C22        -2.2380   -4.4740    1.4900 c3        1 MOL     -0.309492
     71 C23        -1.2470   -3.2850    1.6910 c         1 MOL      0.605148
     72 O13        -1.4680   -2.1990    1.2450 o         1 MOL     -0.568670
     73 C24        -1.7230   -5.3940    0.2790 c3        1 MOL      0.475483
     74 C25        -2.5190   -6.7330    0.1380 c3        1 MOL     -0.380895
     75 O14        -1.8140   -4.7680   -0.9500 oh        1 MOL     -0.634784
     76 H29        -3.7330   -3.4290    0.4210 hn        1 MOL      0.243624
     77 H30        -2.1970   -5.0650    2.4010 h1        1 MOL      0.112639
     78 H31        -0.6640   -5.6070    0.4200 h1        1 MOL     -0.033732
     79 H32        -1.0130   -4.2460   -1.0750 ho        1 MOL      0.427393
     80 H33        -2.4200   -7.3120    1.0540 hc        1 MOL      0.095776
     81 H34        -3.5530   -6.4910   -0.1060 hc        1 MOL      0.095776
     82 H35        -2.0190   -7.3610   -0.5870 hc        1 MOL      0.095776
     83 N9         -0.1110   -3.5640    2.4100 n         1 MOL     -0.487291
     84 C26         1.1500   -2.7110    2.3570 c3        1 MOL     -0.099095
     85 C27         1.8310   -3.0460    1.0330 c         1 MOL      0.452407
     86 O15         2.1550   -4.2120    0.6810 o         1 MOL     -0.566708
     87 C28         2.1540   -2.8720    3.5340 c3        1 MOL      0.193668
     88 C29         1.3700   -2.5780    4.7960 c3        1 MOL      0.095269
     89 C30         3.3060   -1.9390    3.4970 c3        1 MOL     -0.305524
     90 C31         1.9960   -3.1750    6.0870 c3        1 MOL     -0.107650
     91 H36         0.0160   -4.3670    2.9970 hn        1 MOL      0.283283
     92 H37         0.8390   -1.6690    2.4090 h1        1 MOL      0.160918
     93 H38         2.4550   -3.9120    3.4620 hc        1 MOL     -0.006878
     94 H39         0.3640   -2.9750    4.6820 hc        1 MOL     -0.017191
     95 H40         1.0850   -1.5400    4.9460 hc        1 MOL     -0.017191
     96 H41         3.8720   -2.1950    2.6010 hc        1 MOL      0.060831
     97 H42         2.9720   -0.9200    3.3110 hc        1 MOL      0.060831
     98 H43         4.0070   -1.9670    4.3320 hc        1 MOL      0.060831
     99 H44         3.0840   -3.0340    6.0690 hc        1 MOL      0.012098
    100 H45         1.5340   -2.7750    6.9830 hc        1 MOL      0.012098
    101 H46         1.8480   -4.2580    6.0570 hc        1 MOL      0.012098
    102 N10         1.9820   -2.0020    0.1610 n         1 MOL     -0.121901
    103 C32         2.7410   -1.9560   -1.0350 c3        1 MOL      0.014580
    104 C33         4.1330   -1.3360   -0.7420 c         1 MOL      0.500603
    105 O16         4.2160   -0.3890    0.0370 o         1 MOL     -0.383170
    106 C34         1.8660   -1.3180   -2.1390 c3        1 MOL     -0.329292
    107 C35         0.4120   -1.7360   -2.1720 c         1 MOL      0.808813
    108 O17         0.0530   -2.8520   -2.6880 o         1 MOL     -0.719028
    109 O18        -0.5090   -1.0430   -1.6000 o         1 MOL     -0.719028
    110 H47         1.5930   -1.1430    0.5030 hn        1 MOL      0.157014
    111 H48         2.9020   -2.9800   -1.3780 h1        1 MOL      0.067179
    112 H49         2.2960   -1.5830   -3.1070 hc        1 MOL      0.092840
    113 H50         1.9130   -0.2200   -2.1030 hc        1 MOL      0.092840
    114 N11         5.2060   -1.7270   -1.4300 n         1 MOL     -0.675095
    115 C36         6.5780   -1.3120   -1.1510 c3        1 MOL      0.307742
    116 C37         6.6900    0.1950   -1.1670 c         1 MOL      0.319283
    117 O19         7.3560    0.6910   -0.2600 o         1 MOL     -0.487464
    118 C38         7.5130   -2.0630   -2.1940 c3        1 MOL     -0.138716
    119 C39         9.0040   -2.0620   -1.9560 ca        1 MOL      0.030792
    120 C40         9.9780   -1.8200   -3.0010 ca        1 MOL     -0.112766
    121 C41         9.4260   -2.1840   -0.6200 ca        1 MOL     -0.112766
    122 C42        11.3250   -1.7470   -2.7440 ca        1 MOL     -0.152367
    123 C43        10.7700   -1.9710   -0.3560 ca        1 MOL     -0.152367
    124 C44        11.7070   -1.7470   -1.3870 ca        1 MOL     -0.066719
    125 H51         4.9430   -2.3770   -2.1620 hn        1 MOL      0.316229
    126 H52         6.7800   -1.7010   -0.1560 h1        1 MOL      0.099732
    127 H53         7.3180   -1.7100   -3.2100 hc        1 MOL      0.062659
    128 H54         7.2570   -3.1200   -2.2470 hc        1 MOL      0.062659
    129 H55         9.6510   -1.7820   -4.0310 ha        1 MOL      0.098513
    130 H56         8.7070   -2.4630    0.1270 ha        1 MOL      0.098513
    131 H57        12.0110   -1.5530   -3.5570 ha        1 MOL      0.121393
    132 H58        11.1950   -2.0240    0.6390 ha        1 MOL      0.121393
    133 H59        12.7460   -1.6820   -1.0890 ha        1 MOL      0.083723
    134 N12         6.1760    0.9580   -2.1280 n         1 MOL     -0.094452
    135 C45         6.0770    2.4560   -2.0790 c3        1 MOL     -0.047691
    136 C46         5.5550    3.0330   -0.7500 c         1 MOL      0.239329
    137 O20         6.0540    4.0670   -0.2520 o         1 MOL     -0.502341
    138 C47         5.0590    2.8370   -3.1690 c3        1 MOL      0.182742
    139 C48         5.2640    1.7660   -4.2560 c3        1 MOL     -0.145855
    140 C49         5.4680    0.5480   -3.3450 c3        1 MOL      0.007385
    141 H60         7.0260    2.9190   -2.3830 h1        1 MOL      0.073679
    142 H61         4.0680    2.7450   -2.7280 hc        1 MOL     -0.020950
    143 H62         5.1580    3.8330   -3.5950 hc        1 MOL     -0.020950
    144 H63         4.3960    1.6160   -4.9050 hc        1 MOL      0.055670
    145 H64         6.1920    1.9940   -4.7750 hc        1 MOL      0.055670
    146 H65         4.5340    0.0230   -3.1300 h1        1 MOL      0.023460
    147 H66         6.1090   -0.1240   -3.9280 h1        1 MOL      0.023460
    148 N13         4.6090    2.4340   -0.1420 n         1 MOL      0.040220
    149 C50         4.0430    2.7380    1.1640 c3        1 MOL     -0.356581
    150 C51         5.0560    2.3930    2.3140 c         1 MOL      0.475310
    151 O21         5.3350    3.2130    3.2020 o         1 MOL     -0.558569
    152 C52         2.6850    2.0640    1.3810 c3        1 MOL      0.214299
    153 C53         1.6640    2.3180    0.2630 c3        1 MOL     -0.290520
    154 C54         0.3430    1.4730    0.4900 c         1 MOL      0.600100
    155 O22        -0.6830    1.7810   -0.1560 o         1 MOL     -0.691359
    156 O23         0.3280    0.5050    1.2610 o         1 MOL     -0.691359
    157 H67         4.3260    1.5500   -0.5580 hn        1 MOL      0.193699
    158 H68         3.8620    3.7940    1.3480 h1        1 MOL      0.162477
    159 H69         2.2800    2.4360    2.3240 hc        1 MOL     -0.004730
    160 H70         2.8350    1.0170    1.6500 hc        1 MOL     -0.004730
    161 H71         2.0590    1.8150   -0.6270 hc        1 MOL      0.081998
    162 H72         1.5080    3.3830    0.1140 hc        1 MOL      0.081998
    163 N14         5.7020    1.2850    2.2190 n         1 MOL      0.028363
    164 C55         6.6150    0.8770    3.3170 c3        1 MOL     -0.353983
    165 H73         6.5650   -0.2040    3.4470 h1        1 MOL      0.117227
    166 H74         7.6370    1.1660    3.0680 h1        1 MOL      0.117227
    167 H75         6.3140    1.3690    4.2420 h1        1 MOL      0.117227
    168 H76         5.5550    0.6370    1.4600 hn        1 MOL      0.056039
    169 Ca1        -2.2800   -0.0980   -0.0820 Ca        1 MOL      1.690782
    170 O24        -1.6980    0.2060    3.1110 oh        1 MOL     -0.738963
    171 H77        -1.8900    0.7700    3.8560 ho        1 MOL      0.356765
    172 H78        -0.8070    0.4360    2.8450 ho        1 MOL      0.356765
    173 O25        -4.4630   -0.5600    1.3810 oh        1 MOL     -0.738963
    174 H79        -5.0880    0.1490    1.4910 ho        1 MOL      0.356765
    175 H80        -4.5590   -1.0970    2.1690 ho        1 MOL      0.356765
@<TRIPOS>BOND
     1    1    2 1   
     2    1    4 1   
     3    1    5 1   
     4    1    6 1   
     5    2    3 2   
     6    2    7 1   
     7    7    8 1   
     8    7   15 1   
     9    8    9 1   
    10    8   11 1   
    11    8   16 1   
    12    9   10 2   
    13    9   19 1   
    14   11   12 1   
    15   11   17 1   
    16   11   18 1   
    17   12   13 1   
    18   12   14 1   
    19   19   20 1   
    20   19   24 1   
    21   20   21 1   
    22   20   23 1   
    23   20   25 1   
    24   21   22 2   
    25   21   29 1   
    26   23   26 1   
    27   23   27 1   
    28   23   28 1   
    29   29   30 1   
    30   29   37 1   
    31   30   31 1   
    32   30   33 1   
    33   30   38 1   
    34   31   32 2   
    35   31   41 1   
    36   33   34 1   
    37   33   39 1   
    38   33   40 1   
    39   34   35 1   
    40   34   36 1   
    41   41   42 1   
    42   41   45 1   
    43   42   43 1   
    44   42   46 1   
    45   42   47 1   
    46   43   44 2   
    47   43   48 1   
    48   48   49 1   
    49   48   56 1   
    50   49   50 1   
    51   49   52 1   
    52   49   57 1   
    53   50   51 2   
    54   50   62 1   
    55   52   53 1   
    56   52   58 1   
    57   52   59 1   
    58   53   54 1   
    59   53   55 2   
    60   54   60 1   
    61   54   61 1   
    62   62   63 1   
    63   62   66 1   
    64   63   64 1   
    65   63   67 1   
    66   63   68 1   
    67   64   65 2   
    68   64   69 1   
    69   69   70 1   
    70   69   76 1   
    71   70   71 1   
    72   70   73 1   
    73   70   77 1   
    74   71   72 2   
    75   71   83 1   
    76   73   74 1   
    77   73   75 1   
    78   73   78 1   
    79   74   80 1   
    80   74   81 1   
    81   74   82 1   
    82   75   79 1   
    83   83   84 1   
    84   83   91 1   
    85   84   85 1   
    86   84   87 1   
    87   84   92 1   
    88   85   86 2   
    89   85  102 1   
    90   87   88 1   
    91   87   89 1   
    92   87   93 1   
    93   88   90 1   
    94   88   94 1   
    95   88   95 1   
    96   89   96 1   
    97   89   97 1   
    98   89   98 1   
    99   90   99 1   
   100   90  100 1   
   101   90  101 1   
   102  102  103 1   
   103  102  110 1   
   104  103  104 1   
   105  103  106 1   
   106  103  111 1   
   107  104  105 2   
   108  104  114 1   
   109  106  107 1   
   110  106  112 1   
   111  106  113 1   
   112  107  108 1   
   113  107  109 1   
   114  114  115 1   
   115  114  125 1   
   116  115  116 1   
   117  115  118 1   
   118  115  126 1   
   119  116  117 2   
   120  116  134 1   
   121  118  119 1   
   122  118  127 1   
   123  118  128 1   
   124  119  120 ar  
   125  119  121 ar  
   126  120  122 ar  
   127  120  129 1   
   128  121  123 ar  
   129  121  130 1   
   130  122  124 ar  
   131  122  131 1   
   132  123  124 ar  
   133  123  132 1   
   134  124  133 1   
   135  134  135 1   
   136  134  140 1   
   137  135  136 1   
   138  135  138 1   
   139  135  141 1   
   140  136  137 2   
   141  136  148 1   
   142  138  139 1   
   143  138  142 1   
   144  138  143 1   
   145  139  140 1   
   146  139  144 1   
   147  139  145 1   
   148  140  146 1   
   149  140  147 1   
   150  148  149 1   
   151  148  157 1   
   152  149  150 1   
   153  149  152 1   
   154  149  158 1   
   155  150  151 2   
   156  150  163 1   
   157  152  153 1   
   158  152  159 1   
   159  152  160 1   
   160  153  154 1   
   161  153  161 1   
   162  153  162 1   
   163  154  155 1   
   164  154  156 1   
   165  163  164 1   
   166  163  168 1   
   167  164  165 1   
   168  164  166 1   
   169  164  167 1   
   170  170  171 1   
   171  170  172 1   
   172  173  174 1   
   173  173  175 1   
@<TRIPOS>SUBSTRUCTURE
     1 MOL         1 TEMP              0 ****  ****    0 ROOT
