@<TRIPOS>MOLECULE
MOL
  172   171     1     0     0
SMALL
resp


@<TRIPOS>ATOM
      1 C1          0.1180   -2.4440    6.1220 c3        1 MOL     -0.349633
      2 C2          0.5020   -2.4950    4.6090 c         1 MOL      0.823305
      3 O1         -0.3090   -2.8890    3.8240 o         1 MOL     -0.604703
      4 H1          0.6550   -3.2270    6.6590 hc        1 MOL      0.075944
      5 H2          0.3890   -1.4720    6.5340 hc        1 MOL      0.075944
      6 H3         -0.9550   -2.5990    6.2310 hc        1 MOL      0.075944
      7 N1          1.7450   -2.1300    4.2650 n         1 MOL     -0.739625
      8 C3          2.2530   -2.0700    2.9170 c3        1 MOL      0.295381
      9 C4          2.5460   -3.5140    2.3250 c         1 MOL      0.573225
     10 O2          3.3170   -4.2340    2.8540 o         1 MOL     -0.586501
     11 C5          3.3870   -1.0460    2.9360 c3        1 MOL     -0.186072
     12 C6          3.7450   -0.5630    1.4820 c         1 MOL      0.766845
     13 O3          3.1530   -1.0890    0.5300 o         1 MOL     -0.704587
     14 O4          4.6210    0.2940    1.2940 o         1 MOL     -0.704587
     15 H4          2.2330   -1.5760    4.9510 hn        1 MOL      0.324485
     16 H5          1.5100   -1.6420    2.2430 h1        1 MOL      0.010740
     17 H6          4.2480   -1.3980    3.5010 hc        1 MOL      0.028796
     18 H7          3.0820   -0.1220    3.4370 hc        1 MOL      0.028796
     19 N2          1.8450   -3.8450    1.2290 n         1 MOL     -0.304980
     20 C7          1.9040   -5.2430    0.7160 c3        1 MOL      0.167897
     21 C8          3.0690   -5.4270   -0.2990 c         1 MOL      0.340165
     22 O5          3.7410   -6.4530   -0.3070 o         1 MOL     -0.567291
     23 C9          0.5490   -5.6760    0.0290 c3        1 MOL     -0.352730
     24 H8          1.2630   -3.1710    0.7580 hn        1 MOL      0.138934
     25 H9          2.0770   -5.9500    1.5270 h1        1 MOL      0.052363
     26 H10        -0.1990   -5.4140    0.7740 hc        1 MOL      0.093637
     27 H11         0.3500   -5.2150   -0.9350 hc        1 MOL      0.093637
     28 H12         0.4500   -6.7560   -0.0940 hc        1 MOL      0.093637
     29 N3          3.3440   -4.4160   -1.0780 n         1 MOL     -0.069850
     30 C10         4.4000   -4.3150   -2.1150 c3        1 MOL      0.026617
     31 C11         5.5610   -3.4490   -1.7870 c         1 MOL      0.462590
     32 O6          6.5930   -3.4450   -2.4420 o         1 MOL     -0.528292
     33 C12         3.8870   -3.9490   -3.5420 c3        1 MOL     -0.172642
     34 C13         3.4500   -2.4880   -3.5700 c         1 MOL      0.750927
     35 O7          3.6580   -1.8380   -4.5960 o         1 MOL     -0.675089
     36 O8          3.0770   -1.9380   -2.4880 o         1 MOL     -0.675089
     37 H13         2.6550   -3.6970   -1.2500 hn        1 MOL      0.205482
     38 H14         4.8400   -5.3160   -2.1450 h1        1 MOL      0.058547
     39 H15         2.9500   -4.5090   -3.6410 hc        1 MOL      0.019914
     40 H16         4.6420   -4.1290   -4.3140 hc        1 MOL      0.019914
     41 N4          5.4250   -2.7480   -0.6600 n         1 MOL     -0.189988
     42 C14         6.5030   -2.2450    0.1980 c3        1 MOL      0.144320
     43 C15         7.3860   -1.0740   -0.3460 c         1 MOL      0.340694
     44 O9          8.5960   -1.2090   -0.6170 o         1 MOL     -0.543220
     45 H17         4.4660   -2.6450   -0.3580 hn        1 MOL      0.043443
     46 H18         7.1650   -3.0400    0.5740 h1        1 MOL      0.002664
     47 H19         6.0720   -1.9160    1.1390 h1        1 MOL      0.002664
     48 N5          6.6320   -0.0100   -0.6210 n         1 MOL     -0.114832
     49 C16         7.1250    1.2260   -1.2360 c3        1 MOL      0.084262
     50 C17         7.0440    2.5300   -0.4630 c         1 MOL      0.359133
     51 O10         7.3580    3.6260   -0.9230 o         1 MOL     -0.486644
     52 C18         6.2970    1.3920   -2.5210 c3        1 MOL     -0.293091
     53 C19         4.9170    1.9710   -2.4710 c         1 MOL      0.534252
     54 N6          4.6160    3.1040   -3.1350 n         1 MOL     -0.694429
     55 O11         4.0450    1.4240   -1.7910 o         1 MOL     -0.619195
     56 H20         5.6940   -0.1840   -0.3210 hn        1 MOL      0.125122
     57 H21         8.1850    1.0420   -1.3990 h1        1 MOL      0.092597
     58 H22         6.1340    0.4540   -3.0660 hc        1 MOL      0.110252
     59 H23         6.8420    2.1320   -3.1040 hc        1 MOL      0.110252
     60 H24         5.2980    3.5310   -3.7460 hn        1 MOL      0.357876
     61 H25         3.6280    3.2740   -3.2520 hn        1 MOL      0.357876
     62 N7          6.6690    2.4990    0.8440 n         1 MOL     -0.217910
     63 C20         6.6300    3.6430    1.7070 c3        1 MOL     -0.184989
     64 C21         5.2920    4.4160    1.6160 c         1 MOL      0.505768
     65 O12         5.0490    5.4120    2.3300 o         1 MOL     -0.582091
     66 H26         6.4680    1.6030    1.2490 hn        1 MOL      0.194380
     67 H27         7.4840    4.2780    1.5040 h1        1 MOL      0.113967
     68 H28         6.7040    3.3850    2.7550 h1        1 MOL      0.113967
     69 N8          4.2720    3.9000    0.8840 n         1 MOL     -0.274576
     70 C22         2.8900    4.4410    0.8880 c3        1 MOL     -0.120885
     71 C23         1.8420    3.3000    0.8110 c         1 MOL      0.567794
     72 O13         1.9190    2.3230    0.1310 o         1 MOL     -0.641852
     73 C24         2.6650    5.2040   -0.4010 c3        1 MOL      0.572409
     74 C25         1.4000    6.0220   -0.4520 c3        1 MOL     -0.510333
     75 O14         3.6390    6.1420   -0.7070 oh        1 MOL     -0.686874
     76 H29         4.4240    2.9400    0.5990 hn        1 MOL      0.274466
     77 H30         2.7760    5.0340    1.7940 h1        1 MOL      0.091944
     78 H31         2.7490    4.5640   -1.2850 h1        1 MOL      0.004767
     79 H32         3.3300    7.0410   -0.6080 ho        1 MOL      0.391349
     80 H33         0.6440    5.2370   -0.4880 hc        1 MOL      0.118588
     81 H34         1.2360    6.6640    0.4170 hc        1 MOL      0.118588
     82 H35         1.3520    6.5050   -1.4340 hc        1 MOL      0.118588
     83 N9          0.7280    3.6490    1.4330 n         1 MOL     -0.464087
     84 C26        -0.4570    2.7980    1.5890 c3        1 MOL     -0.019105
     85 C27        -1.5170    3.1300    0.4660 c         1 MOL      0.580726
     86 O15        -1.7860    4.3110    0.2020 o         1 MOL     -0.594879
     87 C28        -1.1000    2.9200    3.0240 c3        1 MOL      0.183916
     88 C29        -0.1140    2.4370    4.0910 c3        1 MOL      0.190932
     89 C30        -2.3270    2.1170    3.0660 c3        1 MOL     -0.230467
     90 C31        -0.6100    3.0260    5.4340 c3        1 MOL     -0.148502
     91 H36         0.6540    4.5540    1.8710 hn        1 MOL      0.256570
     92 H37        -0.1170    1.7680    1.4740 h1        1 MOL      0.167134
     93 H38        -1.4040    3.9500    3.1720 hc        1 MOL     -0.024769
     94 H39         0.9000    2.8220    3.9670 hc        1 MOL     -0.053062
     95 H40        -0.0680    1.3500    4.0260 hc        1 MOL     -0.053062
     96 H41        -3.1160    2.5450    2.4370 hc        1 MOL      0.031962
     97 H42        -2.0900    1.0690    2.8960 hc        1 MOL      0.031962
     98 H43        -2.8000    2.1260    4.0460 hc        1 MOL      0.031962
     99 H44        -0.1500    2.4970    6.2770 hc        1 MOL      0.015570
    100 H45        -0.2650    4.0560    5.3780 hc        1 MOL      0.015570
    101 H46        -1.6850    3.0100    5.5910 hc        1 MOL      0.015570
    102 N10        -2.0950    2.0050   -0.0320 n         1 MOL     -0.145340
    103 C32        -3.0890    2.0240   -1.0910 c3        1 MOL      0.012170
    104 C33        -4.5100    1.6370   -0.5750 c         1 MOL      0.435694
    105 O16        -4.7660    1.1350    0.5170 o         1 MOL     -0.386127
    106 C34        -2.5910    1.1880   -2.2920 c3        1 MOL     -0.152277
    107 C35        -1.2100    1.6170   -2.7440 c         1 MOL      0.638621
    108 O17        -1.0790    2.5840   -3.5640 o         1 MOL     -0.673947
    109 O18        -0.2290    0.8920   -2.3860 o         1 MOL     -0.673947
    110 H47        -1.8220    1.0830    0.2920 hn        1 MOL      0.031398
    111 H48        -3.1240    3.0550   -1.4510 h1        1 MOL      0.066824
    112 H49        -3.2600    1.4010   -3.1280 hc        1 MOL      0.046249
    113 H50        -2.5320    0.1330   -2.0390 hc        1 MOL      0.046249
    114 N11        -5.5970    1.9080   -1.3210 n         1 MOL     -0.570010
    115 C36        -6.9220    1.4360   -0.9810 c3        1 MOL      0.310997
    116 C37        -7.0530   -0.0700   -0.7100 c         1 MOL      0.307317
    117 O19        -7.5130   -0.4940    0.3460 o         1 MOL     -0.470769
    118 C38        -7.9400    1.9530   -2.0540 c3        1 MOL     -0.193182
    119 C39        -9.3900    1.5720   -1.7340 ca        1 MOL      0.015226
    120 C40        -9.8990    1.8730   -0.4390 ca        1 MOL     -0.092728
    121 C41       -10.1740    0.8330   -2.6320 ca        1 MOL     -0.092728
    122 C42       -11.2710    1.7370   -0.1670 ca        1 MOL     -0.116826
    123 C43       -11.5100    0.5850   -2.3380 ca        1 MOL     -0.116826
    124 C44       -12.1160    1.0840   -1.1210 ca        1 MOL     -0.167287
    125 H51        -5.4500    2.4310   -2.1720 hn        1 MOL      0.311981
    126 H52        -7.2220    1.8970   -0.0360 h1        1 MOL      0.056236
    127 H53        -7.7060    1.4070   -2.9790 hc        1 MOL      0.068038
    128 H54        -7.8040    3.0270   -2.1720 hc        1 MOL      0.068038
    129 H55        -9.2920    2.3070    0.3420 ha        1 MOL      0.099102
    130 H56        -9.8580    0.6790   -3.6480 ha        1 MOL      0.099102
    131 H57       -11.6490    1.9380    0.8250 ha        1 MOL      0.111579
    132 H58       -12.1180    0.0680   -3.0620 ha        1 MOL      0.111579
    133 H59       -13.1300    0.8490   -0.8340 ha        1 MOL      0.125746
    134 N12        -6.3920   -0.9750   -1.5220 n         1 MOL     -0.094605
    135 C45        -6.4580   -2.4340   -1.2390 c3        1 MOL      0.019627
    136 C46        -5.6160   -2.8790    0.0080 c         1 MOL      0.341054
    137 O20        -5.9000   -3.8840    0.6870 o         1 MOL     -0.497378
    138 C47        -5.9650   -3.2140   -2.4360 c3        1 MOL     -0.116743
    139 C48        -5.2910   -2.1100   -3.2370 c3        1 MOL     -0.053038
    140 C49        -5.9630   -0.7710   -2.8860 c3        1 MOL      0.101626
    141 H60        -7.4760   -2.7550   -1.0390 h1        1 MOL      0.067673
    142 H61        -5.3400   -4.0540   -2.1470 hc        1 MOL      0.060209
    143 H62        -6.8490   -3.5630   -2.9670 hc        1 MOL      0.060209
    144 H63        -4.2330   -2.0960   -2.9610 hc        1 MOL      0.029485
    145 H64        -5.4320   -2.1340   -4.3100 hc        1 MOL      0.029485
    146 H65        -5.2710    0.0600   -3.0310 h1        1 MOL     -0.016449
    147 H66        -6.8780   -0.5310   -3.4310 h1        1 MOL     -0.016449
    148 N13        -4.6080   -2.0510    0.3810 n         1 MOL     -0.130206
    149 C50        -3.8010   -2.2250    1.5770 c3        1 MOL     -0.237863
    150 C51        -4.5600   -1.7790    2.8520 c         1 MOL      0.468791
    151 O21        -4.5530   -2.4820    3.8810 o         1 MOL     -0.547954
    152 C52        -2.5030   -1.4760    1.3950 c3        1 MOL      0.094111
    153 C53        -1.6310   -2.0990    0.2240 c3        1 MOL     -0.189547
    154 C54        -0.2730   -1.4650    0.1090 c         1 MOL      0.744667
    155 O22        -0.1930   -0.2280    0.3860 o         1 MOL     -0.755129
    156 O23         0.6010   -1.9900   -0.6030 o         1 MOL     -0.755129
    157 H67        -4.4460   -1.2240   -0.1700 hn        1 MOL      0.173524
    158 H68        -3.5170   -3.2810    1.6330 h1        1 MOL      0.151428
    159 H69        -1.9650   -1.5650    2.3290 hc        1 MOL      0.043450
    160 H70        -2.7000   -0.4150    1.1920 hc        1 MOL      0.043450
    161 H71        -2.0640   -1.8770   -0.7510 hc        1 MOL      0.067255
    162 H72        -1.5330   -3.1730    0.3160 hc        1 MOL      0.067255
    163 N14        -5.3430   -0.6880    2.7330 n         1 MOL     -0.024423
    164 C55        -6.1260   -0.1480    3.7920 c3        1 MOL     -0.313802
    165 H73        -5.8940   -0.6740    4.7180 h1        1 MOL      0.102269
    166 H74        -5.8990    0.9110    3.9080 h1        1 MOL      0.102269
    167 H75        -7.1840   -0.2700    3.5610 h1        1 MOL      0.102269
    168 H76        -5.3740   -0.2530    1.8190 hn        1 MOL      0.101212
    169 Ca1         1.9260    0.1120   -1.3810 Ca        1 MOL      1.751687
    170 O24         2.3680    0.3160   -3.9440 oh        1 MOL     -0.895682
    171 H77         2.9430   -0.4370   -4.0800 ho        1 MOL      0.402115
    172 H78         2.6750    0.9560   -4.5890 ho        1 MOL      0.402115
@<TRIPOS>BOND
     1    1    2 1   
     2    1    4 1   
     3    1    5 1   
     4    1    6 1   
     5    2    3 2   
     6    2    7 1   
     7    7    8 1   
     8    7   15 1   
     9    8    9 1   
    10    8   11 1   
    11    8   16 1   
    12    9   10 2   
    13    9   19 1   
    14   11   12 1   
    15   11   17 1   
    16   11   18 1   
    17   12   13 1   
    18   12   14 1   
    19   19   20 1   
    20   19   24 1   
    21   20   21 1   
    22   20   23 1   
    23   20   25 1   
    24   21   22 2   
    25   21   29 1   
    26   23   26 1   
    27   23   27 1   
    28   23   28 1   
    29   29   30 1   
    30   29   37 1   
    31   30   31 1   
    32   30   33 1   
    33   30   38 1   
    34   31   32 2   
    35   31   41 1   
    36   33   34 1   
    37   33   39 1   
    38   33   40 1   
    39   34   35 1   
    40   34   36 1   
    41   41   42 1   
    42   41   45 1   
    43   42   43 1   
    44   42   46 1   
    45   42   47 1   
    46   43   44 2   
    47   43   48 1   
    48   48   49 1   
    49   48   56 1   
    50   49   50 1   
    51   49   52 1   
    52   49   57 1   
    53   50   51 2   
    54   50   62 1   
    55   52   53 1   
    56   52   58 1   
    57   52   59 1   
    58   53   54 1   
    59   53   55 2   
    60   54   60 1   
    61   54   61 1   
    62   62   63 1   
    63   62   66 1   
    64   63   64 1   
    65   63   67 1   
    66   63   68 1   
    67   64   65 2   
    68   64   69 1   
    69   69   70 1   
    70   69   76 1   
    71   70   71 1   
    72   70   73 1   
    73   70   77 1   
    74   71   72 2   
    75   71   83 1   
    76   73   74 1   
    77   73   75 1   
    78   73   78 1   
    79   74   80 1   
    80   74   81 1   
    81   74   82 1   
    82   75   79 1   
    83   83   84 1   
    84   83   91 1   
    85   84   85 1   
    86   84   87 1   
    87   84   92 1   
    88   85   86 2   
    89   85  102 1   
    90   87   88 1   
    91   87   89 1   
    92   87   93 1   
    93   88   90 1   
    94   88   94 1   
    95   88   95 1   
    96   89   96 1   
    97   89   97 1   
    98   89   98 1   
    99   90   99 1   
   100   90  100 1   
   101   90  101 1   
   102  102  103 1   
   103  102  110 1   
   104  103  104 1   
   105  103  106 1   
   106  103  111 1   
   107  104  105 2   
   108  104  114 1   
   109  106  107 1   
   110  106  112 1   
   111  106  113 1   
   112  107  108 1   
   113  107  109 1   
   114  114  115 1   
   115  114  125 1   
   116  115  116 1   
   117  115  118 1   
   118  115  126 1   
   119  116  117 2   
   120  116  134 1   
   121  118  119 1   
   122  118  127 1   
   123  118  128 1   
   124  119  120 ar  
   125  119  121 ar  
   126  120  122 ar  
   127  120  129 1   
   128  121  123 ar  
   129  121  130 1   
   130  122  124 ar  
   131  122  131 1   
   132  123  124 ar  
   133  123  132 1   
   134  124  133 1   
   135  134  135 1   
   136  134  140 1   
   137  135  136 1   
   138  135  138 1   
   139  135  141 1   
   140  136  137 2   
   141  136  148 1   
   142  138  139 1   
   143  138  142 1   
   144  138  143 1   
   145  139  140 1   
   146  139  144 1   
   147  139  145 1   
   148  140  146 1   
   149  140  147 1   
   150  148  149 1   
   151  148  157 1   
   152  149  150 1   
   153  149  152 1   
   154  149  158 1   
   155  150  151 2   
   156  150  163 1   
   157  152  153 1   
   158  152  159 1   
   159  152  160 1   
   160  153  154 1   
   161  153  161 1   
   162  153  162 1   
   163  154  155 1   
   164  154  156 1   
   165  163  164 1   
   166  163  168 1   
   167  164  165 1   
   168  164  166 1   
   169  164  167 1   
   170  170  171 1   
   171  170  172 1   
@<TRIPOS>SUBSTRUCTURE
     1 MOL         1 TEMP              0 ****  ****    0 ROOT
