@<TRIPOS>MOLECULE
MOL
  189   185     1     0     0
SMALL
resp


@<TRIPOS>ATOM
      1 C1          1.0530   -5.2000    5.6460 c3        1 MOL     -0.463879
      2 C2          1.3070   -4.3620    4.4070 c         1 MOL      0.785183
      3 O1          0.9770   -3.1890    4.3740 o         1 MOL     -0.608848
      4 H1          1.9280   -5.1630    6.2940 hc        1 MOL      0.109340
      5 H2          0.1890   -4.8070    6.1810 hc        1 MOL      0.109340
      6 H3          0.8610   -6.2330    5.3540 hc        1 MOL      0.109340
      7 N1          1.8010   -5.0480    3.4190 n         1 MOL     -0.623990
      8 C3          2.3290   -4.3910    2.2120 c3        1 MOL      0.231859
      9 C4          2.0870   -5.3950    0.9840 c         1 MOL      0.444111
     10 O2          2.6220   -6.5110    0.9700 o         1 MOL     -0.544091
     11 C5          3.8000   -3.9870    2.3480 c3        1 MOL     -0.292617
     12 C6          4.3020   -2.9980    1.2630 c         1 MOL      0.806700
     13 O3          5.4310   -2.4370    1.3230 o         1 MOL     -0.710306
     14 O4          3.5490   -2.6160    0.3260 o         1 MOL     -0.710306
     15 H4          2.1170   -5.9910    3.6020 hn        1 MOL      0.323687
     16 H5          1.6910   -3.5190    2.0470 h1        1 MOL      0.080932
     17 H6          4.4130   -4.8980    2.3140 hc        1 MOL      0.054420
     18 H7          3.9330   -3.5010    3.3080 hc        1 MOL      0.054420
     19 N2          1.3350   -4.8380   -0.0270 n         1 MOL     -0.358799
     20 C7          1.1120   -5.5390   -1.2470 c3        1 MOL      0.276875
     21 C8          2.1430   -5.2650   -2.4050 c         1 MOL      0.339659
     22 O5          2.1570   -5.9970   -3.4080 o         1 MOL     -0.546467
     23 C9         -0.4030   -5.3890   -1.6280 c3        1 MOL      0.247391
     24 C10        -1.3870   -5.0990   -0.5000 c3        1 MOL     -0.188035
     25 C11        -0.8750   -6.5980   -2.5070 c3        1 MOL     -0.342817
     26 C12        -1.4370   -6.2360    0.5130 c3        1 MOL     -0.120496
     27 H8          1.0900   -3.8650    0.0490 hn        1 MOL      0.259099
     28 H9          1.1860   -6.6190   -1.1260 h1        1 MOL     -0.004100
     29 H10        -0.4360   -4.4600   -2.1890 hc        1 MOL     -0.034924
     30 H11        -2.4260   -4.8530   -0.7110 hc        1 MOL      0.090713
     31 H12        -1.0400   -4.2530    0.0980 hc        1 MOL      0.090713
     32 H13        -0.6460   -7.6040   -2.1430 hc        1 MOL      0.071481
     33 H14        -1.9280   -6.4190   -2.7380 hc        1 MOL      0.071481
     34 H15        -0.3060   -6.5250   -3.4360 hc        1 MOL      0.071481
     35 H16        -1.7660   -7.2030    0.1350 hc        1 MOL      0.013205
     36 H17        -0.4080   -6.3870    0.8690 hc        1 MOL      0.013205
     37 H18        -2.1050   -5.8960    1.2920 hc        1 MOL      0.013205
     38 N3          2.8010   -4.1120   -2.4060 n         1 MOL     -0.335211
     39 C13         3.5140   -3.5170   -3.5710 c3        1 MOL      0.139688
     40 C14         4.8750   -3.0310   -3.1990 c         1 MOL      0.431579
     41 O6          5.6770   -2.7900   -4.1180 o         1 MOL     -0.583953
     42 C15         2.5070   -2.3960   -4.1660 c3        1 MOL     -0.279106
     43 C16         2.0870   -1.3120   -3.1960 c         1 MOL      0.804150
     44 O7          2.7780   -1.2100   -2.1660 o         1 MOL     -0.717126
     45 O8          1.0520   -0.6100   -3.4900 o         1 MOL     -0.717126
     46 H19         2.6090   -3.4120   -1.7090 hn        1 MOL      0.224471
     47 H20         3.7040   -4.2880   -4.3060 h1        1 MOL      0.068296
     48 H21         1.5630   -2.8500   -4.4570 hc        1 MOL      0.066827
     49 H22         2.9540   -1.9270   -5.0510 hc        1 MOL      0.066827
     50 N4          5.2470   -2.8600   -1.9310 n         1 MOL     -0.200909
     51 C17         6.6020   -2.4890   -1.6450 c3        1 MOL     -0.276938
     52 C18         7.0320   -1.0850   -2.0180 c         1 MOL      0.537837
     53 O9          8.2380   -0.8340   -1.7860 o         1 MOL     -0.617133
     54 H23         4.5810   -3.0300   -1.1950 hn        1 MOL      0.148775
     55 H24         7.3480   -3.1140   -2.1440 h1        1 MOL      0.133142
     56 H25         6.7050   -2.6380   -0.5730 h1        1 MOL      0.133142
     57 N5          6.1580   -0.1940   -2.3920 n         1 MOL     -0.202872
     58 C19         6.4010    1.2590   -2.6200 c3        1 MOL     -0.152307
     59 C20         6.9970    2.0710   -1.3770 c         1 MOL      0.583064
     60 O10         7.7510    3.0420   -1.6100 o         1 MOL     -0.570953
     61 C21         5.1850    2.0000   -3.1940 c3        1 MOL     -0.109053
     62 C22         4.0180    2.2540   -2.2430 c         1 MOL      0.698810
     63 O11         3.9030    1.6650   -1.1340 o         1 MOL     -0.677834
     64 O12         3.1490    3.0580   -2.6410 o         1 MOL     -0.677834
     65 H26         5.1760   -0.4540   -2.4250 hn        1 MOL      0.220193
     66 H27         7.2300    1.3400   -3.3270 h1        1 MOL      0.102714
     67 H28         4.7390    1.5390   -4.0880 hc        1 MOL      0.047531
     68 H29         5.4750    2.9700   -3.5850 hc        1 MOL      0.047531
     69 N6          6.7840    1.6050   -0.0830 n         1 MOL     -0.345520
     70 C23         7.2090    2.4790    1.0820 c3        1 MOL     -0.166782
     71 C24         6.0510    3.3270    1.6120 c         1 MOL      0.483509
     72 O13         6.2880    4.1350    2.5440 o         1 MOL     -0.602162
     73 H30         6.0230    0.9710    0.1100 hn        1 MOL      0.290533
     74 H31         8.0650    3.0060    0.6660 h1        1 MOL      0.105604
     75 H32         7.5600    1.8260    1.8850 h1        1 MOL      0.105604
     76 N7          4.8160    3.2800    1.0460 n         1 MOL     -0.137255
     77 C25         3.6550    4.0960    1.4830 c3        1 MOL      0.004977
     78 C26         2.3690    3.2540    1.7620 c         1 MOL      0.355755
     79 O14         2.2020    2.2390    1.2180 o         1 MOL     -0.421207
     80 C27         3.3670    5.1340    0.4140 c3        1 MOL      0.111706
     81 C28         4.5270    6.1290    0.2890 c3        1 MOL     -0.260847
     82 C29         4.1200    7.4950   -0.1880 c         1 MOL      0.626361
     83 N8          4.9820    8.2940   -0.7460 n         1 MOL     -0.716087
     84 O15         2.9490    7.8910   -0.0800 o         1 MOL     -0.568173
     85 H33         4.6020    2.5540    0.3830 hn        1 MOL      0.074289
     86 H34         3.9560    4.6270    2.3800 h1        1 MOL      0.027614
     87 H35         2.4580    5.6270    0.7590 hc        1 MOL      0.022793
     88 H36         3.1910    4.6990   -0.5600 hc        1 MOL      0.022793
     89 H37         5.3790    5.6910   -0.2430 hc        1 MOL      0.078013
     90 H38         4.8660    6.3350    1.3030 hc        1 MOL      0.078013
     91 H39         5.9390    7.9640   -0.7330 hn        1 MOL      0.328113
     92 H40         4.7520    9.2650   -0.9060 hn        1 MOL      0.328113
     93 N9          1.4290    3.7370    2.6010 n         1 MOL     -0.346496
     94 C30         0.1640    3.0840    2.8660 c3        1 MOL     -0.035939
     95 C31        -0.9430    3.5120    1.9410 c         1 MOL      0.609568
     96 O16        -1.2200    4.6890    1.8990 o         1 MOL     -0.613314
     97 C32        -0.3230    3.3850    4.3350 c3        1 MOL      0.212219
     98 C33        -1.5660    2.5790    4.6280 c3        1 MOL     -0.272277
     99 C34         0.7560    3.0410    5.2930 c3        1 MOL     -0.272277
    100 H41         1.5140    4.7020    2.9220 hn        1 MOL      0.261098
    101 H42         0.2710    2.0010    2.8730 h1        1 MOL      0.141676
    102 H43        -0.5800    4.4390    4.4380 hc        1 MOL     -0.019954
    103 H44        -1.3220    1.5430    4.8770 hc        1 MOL      0.054608
    104 H45        -2.1430    3.0630    5.4120 hc        1 MOL      0.054608
    105 H46        -2.2450    2.5190    3.7760 hc        1 MOL      0.054608
    106 H47         0.2910    3.0050    6.2830 hc        1 MOL      0.054608
    107 H48         1.1530    2.0490    5.1040 hc        1 MOL      0.054608
    108 H49         1.6530    3.6520    5.1990 hc        1 MOL      0.054608
    109 N10        -1.6270    2.5540    1.2580 n         1 MOL     -0.253112
    110 C35        -2.6860    2.6650    0.2300 c3        1 MOL      0.125231
    111 C36        -4.0610    2.2130    0.8120 c         1 MOL      0.145294
    112 O17        -4.1590    1.5670    1.8530 o         1 MOL     -0.232756
    113 C37        -2.1550    1.9050   -0.9710 c3        1 MOL     -0.088163
    114 C38        -3.0830    1.8830   -2.1260 c         1 MOL      0.655306
    115 N11        -3.5320    2.9690   -2.7240 n         1 MOL     -0.727744
    116 O18        -3.4570    0.8120   -2.5850 o         1 MOL     -0.580409
    117 H50        -1.3210    1.6010    1.3920 hn        1 MOL      0.116410
    118 H51        -2.7990    3.7050   -0.0540 h1        1 MOL      0.034688
    119 H52        -1.8810    0.8790   -0.7320 hc        1 MOL      0.067504
    120 H53        -1.2140    2.3730   -1.2530 hc        1 MOL      0.067504
    121 H54        -3.2960    3.9070   -2.4330 hn        1 MOL      0.327105
    122 H55        -4.0930    2.7140   -3.5230 hn        1 MOL      0.327105
    123 N12        -5.1410    2.5210    0.0580 n         1 MOL     -0.196240
    124 C39        -6.5420    2.4190    0.5090 c3        1 MOL      0.103591
    125 C40        -6.9840    0.9500    0.7190 c         1 MOL      0.225043
    126 O19        -7.8210    0.7310    1.6110 o         1 MOL     -0.544933
    127 C41        -7.4980    3.0880   -0.4610 c3        1 MOL     -0.186413
    128 C42        -7.2560    3.1090   -1.9370 ca        1 MOL      0.070268
    129 C43        -6.9160    4.3740   -2.5980 ca        1 MOL     -0.166771
    130 C44        -7.2800    1.9680   -2.6730 ca        1 MOL     -0.166771
    131 C45        -6.6360    4.3300   -3.9250 ca        1 MOL     -0.255363
    132 C46        -6.9710    1.9030   -4.0520 ca        1 MOL     -0.255363
    133 C47        -6.5280    3.0940   -4.6500 ca        1 MOL      0.405215
    134 O20        -6.2130    3.1090   -5.9180 oh        1 MOL     -0.552013
    135 H56        -4.9550    2.9160   -0.8500 hn        1 MOL      0.122141
    136 H57        -6.6450    2.8950    1.4860 h1        1 MOL      0.080249
    137 H58        -7.7300    4.0890   -0.0950 hc        1 MOL      0.078935
    138 H59        -8.4650    2.6060   -0.3190 hc        1 MOL      0.078935
    139 H60        -6.9380    5.3090   -2.0620 ha        1 MOL      0.120185
    140 H61        -7.6600    1.0660   -2.2220 ha        1 MOL      0.120185
    141 H62        -6.5020    5.2770   -4.4280 ha        1 MOL      0.127883
    142 H63        -6.9790    1.0140   -4.6570 ha        1 MOL      0.127883
    143 H64        -6.2130    2.1830   -6.1880 ho        1 MOL      0.412239
    144 N13        -6.5310   -0.0400   -0.0000 n         1 MOL      0.217638
    145 C48        -6.8350   -1.5210    0.2270 c3        1 MOL     -0.393526
    146 C49        -5.8400   -2.0220    1.3570 c         1 MOL      0.410149
    147 O21        -6.0190   -3.0370    2.0220 o         1 MOL     -0.496848
    148 C50        -6.5450   -2.3650   -1.0480 c3        1 MOL      0.252744
    149 C51        -7.1600   -1.9590   -2.4020 c3        1 MOL     -0.287211
    150 C52        -8.6510   -2.0690   -2.5770 c         1 MOL      0.696709
    151 O22        -9.2160   -3.0640   -2.0450 o         1 MOL     -0.716144
    152 O23        -9.3630   -1.1760   -3.0620 o         1 MOL     -0.716144
    153 H65        -5.9070    0.0920   -0.7880 hn        1 MOL      0.121527
    154 H66        -7.8610   -1.6860    0.5570 h1        1 MOL      0.204014
    155 H67        -6.7940   -3.4250   -0.9750 hc        1 MOL     -0.024892
    156 H68        -5.4610   -2.3670   -1.1750 hc        1 MOL     -0.024892
    157 H69        -6.6020   -2.5100   -3.1450 hc        1 MOL      0.042541
    158 H70        -6.9170   -0.9030   -2.5770 hc        1 MOL      0.042541
    159 N14        -4.7380   -1.2670    1.5890 n         1 MOL     -0.120538
    160 C53        -3.8270   -1.6470    2.7070 c3        1 MOL     -0.325257
    161 C54        -4.3880   -1.1580    4.0280 c         1 MOL      0.477254
    162 O24        -4.3130   -1.7860    5.1020 o         1 MOL     -0.553911
    163 C55        -2.4100   -1.2100    2.4180 c3        1 MOL      0.486309
    164 C56        -1.9010   -1.4520    1.0420 c3        1 MOL     -0.309398
    165 C57        -0.4350   -1.0810    0.8170 c         1 MOL      0.957945
    166 O25         0.3700   -1.8780    0.2840 o         1 MOL     -0.826864
    167 O26        -0.0250    0.0200    1.2930 o         1 MOL     -0.826864
    168 H71        -4.6310   -0.3700    1.1500 hn        1 MOL      0.120564
    169 H72        -3.8390   -2.7310    2.7890 h1        1 MOL      0.158357
    170 H73        -1.8290   -1.8450    3.0950 hc        1 MOL     -0.074438
    171 H74        -2.3130   -0.1730    2.7300 hc        1 MOL     -0.074438
    172 H75        -2.6140   -0.9380    0.3940 hc        1 MOL     -0.000510
    173 H76        -1.9980   -2.5260    0.8970 hc        1 MOL     -0.000510
    174 N15        -5.0020    0.0560    4.0230 n         1 MOL     -0.095555
    175 C58        -5.2900    0.8630    5.2100 c3        1 MOL     -0.236316
    176 H77        -4.7150    0.4830    6.0550 h1        1 MOL      0.084229
    177 H78        -5.0140    1.9000    5.0210 h1        1 MOL      0.084229
    178 H79        -6.3540    0.8050    5.4410 h1        1 MOL      0.084229
    179 H80        -4.9800    0.5710    3.1650 hn        1 MOL      0.077913
    180 Ca1         2.4680   -0.2030    0.1970 Ca        1 MOL      1.729665
    181 O27         2.2820   -0.9940    2.8160 oh        1 MOL     -0.869616
    182 H81         3.0190   -0.9130    3.4180 ho        1 MOL      0.409934
    183 H82         1.6740   -1.6020    3.2350 ho        1 MOL      0.409934
    184 O28         4.8530    0.0730    1.4000 oh        1 MOL     -0.869616
    185 H83         5.0470    0.3330    2.3000 ho        1 MOL      0.409934
    186 H84         5.0390   -0.8690    1.3700 ho        1 MOL      0.409934
    187 O29         1.0900    1.4230   -1.6000 oh        1 MOL     -0.869616
    188 H85         1.7360    2.0330   -1.9560 ho        1 MOL      0.409934
    189 H86         0.7500    0.9650   -2.3710 ho        1 MOL      0.409934
@<TRIPOS>BOND
     1    1    2 1   
     2    1    4 1   
     3    1    5 1   
     4    1    6 1   
     5    2    3 2   
     6    2    7 1   
     7    7    8 1   
     8    7   15 1   
     9    8    9 1   
    10    8   11 1   
    11    8   16 1   
    12    9   10 2   
    13    9   19 1   
    14   11   12 1   
    15   11   17 1   
    16   11   18 1   
    17   12   13 1   
    18   12   14 1   
    19   19   20 1   
    20   19   27 1   
    21   20   21 1   
    22   20   23 1   
    23   20   28 1   
    24   21   22 2   
    25   21   38 1   
    26   23   24 1   
    27   23   25 1   
    28   23   29 1   
    29   24   26 1   
    30   24   30 1   
    31   24   31 1   
    32   25   32 1   
    33   25   33 1   
    34   25   34 1   
    35   26   35 1   
    36   26   36 1   
    37   26   37 1   
    38   38   39 1   
    39   38   46 1   
    40   39   40 1   
    41   39   42 1   
    42   39   47 1   
    43   40   41 2   
    44   40   50 1   
    45   42   43 1   
    46   42   48 1   
    47   42   49 1   
    48   43   44 1   
    49   43   45 1   
    50   50   51 1   
    51   50   54 1   
    52   51   52 1   
    53   51   55 1   
    54   51   56 1   
    55   52   53 2   
    56   52   57 1   
    57   57   58 1   
    58   57   65 1   
    59   58   59 1   
    60   58   61 1   
    61   58   66 1   
    62   59   60 2   
    63   59   69 1   
    64   61   62 1   
    65   61   67 1   
    66   61   68 1   
    67   62   63 1   
    68   62   64 1   
    69   69   70 1   
    70   69   73 1   
    71   70   71 1   
    72   70   74 1   
    73   70   75 1   
    74   71   72 2   
    75   71   76 1   
    76   76   77 1   
    77   76   85 1   
    78   77   78 1   
    79   77   80 1   
    80   77   86 1   
    81   78   79 2   
    82   78   93 1   
    83   80   81 1   
    84   80   87 1   
    85   80   88 1   
    86   81   82 1   
    87   81   89 1   
    88   81   90 1   
    89   82   83 1   
    90   82   84 2   
    91   83   91 1   
    92   83   92 1   
    93   93   94 1   
    94   93  100 1   
    95   94   95 1   
    96   94   97 1   
    97   94  101 1   
    98   95   96 2   
    99   95  109 1   
   100   97   98 1   
   101   97   99 1   
   102   97  102 1   
   103   98  103 1   
   104   98  104 1   
   105   98  105 1   
   106   99  106 1   
   107   99  107 1   
   108   99  108 1   
   109  109  110 1   
   110  109  117 1   
   111  110  111 1   
   112  110  113 1   
   113  110  118 1   
   114  111  112 2   
   115  111  123 1   
   116  113  114 1   
   117  113  119 1   
   118  113  120 1   
   119  114  115 1   
   120  114  116 2   
   121  115  121 1   
   122  115  122 1   
   123  123  124 1   
   124  123  135 1   
   125  124  125 1   
   126  124  127 1   
   127  124  136 1   
   128  125  126 2   
   129  125  144 1   
   130  127  128 1   
   131  127  137 1   
   132  127  138 1   
   133  128  129 ar  
   134  128  130 ar  
   135  129  131 ar  
   136  129  139 1   
   137  130  132 ar  
   138  130  140 1   
   139  131  133 ar  
   140  131  141 1   
   141  132  133 ar  
   142  132  142 1   
   143  133  134 1   
   144  134  143 1   
   145  144  145 1   
   146  144  153 1   
   147  145  146 1   
   148  145  148 1   
   149  145  154 1   
   150  146  147 2   
   151  146  159 1   
   152  148  149 1   
   153  148  155 1   
   154  148  156 1   
   155  149  150 1   
   156  149  157 1   
   157  149  158 1   
   158  150  151 1   
   159  150  152 1   
   160  159  160 1   
   161  159  168 1   
   162  160  161 1   
   163  160  163 1   
   164  160  169 1   
   165  161  162 2   
   166  161  174 1   
   167  163  164 1   
   168  163  170 1   
   169  163  171 1   
   170  164  165 1   
   171  164  172 1   
   172  164  173 1   
   173  165  166 1   
   174  165  167 1   
   175  174  175 1   
   176  174  179 1   
   177  175  176 1   
   178  175  177 1   
   179  175  178 1   
   180  181  182 1   
   181  181  183 1   
   182  184  185 1   
   183  184  186 1   
   184  187  188 1   
   185  187  189 1   
@<TRIPOS>SUBSTRUCTURE
     1 MOL         1 TEMP              0 ****  ****    0 ROOT
