@<TRIPOS>MOLECULE
MOL
  186   183     1     0     0
SMALL
resp


@<TRIPOS>ATOM
      1 C1          0.9020   -1.8260    6.5120 c3        1 MOL     -0.373911
      2 C2          1.2250   -1.9110    5.0080 c         1 MOL      0.764278
      3 O1          0.2700   -2.2280    4.2970 o         1 MOL     -0.555430
      4 H1          0.4900   -0.8430    6.7400 hc        1 MOL      0.086760
      5 H2          0.1740   -2.5940    6.7720 hc        1 MOL      0.086760
      6 H3          1.8140   -1.9800    7.0890 hc        1 MOL      0.086760
      7 N1          2.4650   -1.7130    4.5130 n         1 MOL     -0.626465
      8 C3          2.8710   -1.8420    3.1310 c3        1 MOL      0.073705
      9 C4          3.2110   -3.3030    2.7090 c         1 MOL      0.654493
     10 O2          3.7860   -4.0570    3.4870 o         1 MOL     -0.607017
     11 C5          3.9930   -0.9190    2.9460 c3        1 MOL     -0.297334
     12 C6          4.5550   -0.7640    1.5070 c         1 MOL      0.915229
     13 O3          5.6970   -0.2680    1.4250 o         1 MOL     -0.751384
     14 O4          3.8740   -1.2050    0.5110 o         1 MOL     -0.751384
     15 H4          3.2570   -1.5650    5.1070 hn        1 MOL      0.322579
     16 H5          1.9690   -1.5680    2.5890 h1        1 MOL      0.054097
     17 H6          4.7730   -1.1990    3.6630 hc        1 MOL      0.053292
     18 H7          3.6010    0.0670    3.2070 hc        1 MOL      0.053292
     19 N2          2.6550   -3.7530    1.5580 n         1 MOL     -0.327694
     20 C7          2.7810   -5.0500    0.9390 c3        1 MOL     -0.101360
     21 C8          3.8280   -5.1860   -0.1670 c         1 MOL      0.746338
     22 O5          4.4650   -6.1840   -0.2530 o         1 MOL     -0.629200
     23 C9          1.3690   -5.5400    0.6310 c3        1 MOL      0.389141
     24 C10         0.6680   -5.8710    1.9360 c3        1 MOL      0.006840
     25 C11         1.4150   -6.7710   -0.2910 c3        1 MOL     -0.357071
     26 C12        -0.8040   -5.8260    1.8270 c3        1 MOL      0.049639
     27 H8          2.0030   -3.1100    1.1150 hn        1 MOL      0.140479
     28 H9          3.1300   -5.7980    1.6490 h1        1 MOL      0.018336
     29 H10         0.7920   -4.7330    0.1760 hc        1 MOL     -0.029174
     30 H11         0.8780   -5.1210    2.7030 hc        1 MOL     -0.031835
     31 H12         1.0490   -6.8670    2.1900 hc        1 MOL     -0.031835
     32 H13         1.7480   -6.4400   -1.2760 hc        1 MOL      0.067668
     33 H14         2.0950   -7.5640    0.0300 hc        1 MOL      0.067668
     34 H15         0.4110   -7.1830   -0.3660 hc        1 MOL      0.067668
     35 H16        -1.2490   -6.4150    2.6220 hc        1 MOL     -0.026002
     36 H17        -1.2760   -4.8460    1.9940 hc        1 MOL     -0.026002
     37 H18        -1.0690   -6.2910    0.8810 hc        1 MOL     -0.026002
     38 N3          4.0270   -4.1430   -0.9390 n         1 MOL     -0.702177
     39 C13         4.9520   -4.1010   -2.1280 c3        1 MOL      0.254835
     40 C14         6.1520   -3.1650   -2.0180 c         1 MOL      0.378052
     41 O6          6.9170   -3.0580   -3.0060 o         1 MOL     -0.525291
     42 C15         4.0890   -3.8650   -3.3960 c3        1 MOL     -0.293560
     43 C16         3.2770   -2.5520   -3.4470 c         1 MOL      0.885750
     44 O7          2.3920   -2.4900   -4.2730 o         1 MOL     -0.739459
     45 O8          3.3610   -1.7510   -2.5700 o         1 MOL     -0.739459
     46 H19         3.4790   -3.2900   -0.8150 hn        1 MOL      0.376689
     47 H20         5.4990   -5.0330   -2.3130 h1        1 MOL      0.053286
     48 H21         3.3260   -4.6430   -3.4380 hc        1 MOL      0.051761
     49 H22         4.7140   -4.0650   -4.2680 hc        1 MOL      0.051761
     50 N4          6.3980   -2.5570   -0.8310 n         1 MOL     -0.195295
     51 C17         7.7030   -1.8370   -0.6090 c3        1 MOL     -0.231732
     52 C18         7.7900   -0.5880   -1.5000 c         1 MOL      0.852882
     53 O9          8.3740   -0.5100   -2.5570 o         1 MOL     -0.587623
     54 H23         5.6540   -2.5460   -0.1430 hn        1 MOL      0.192267
     55 H24         8.5650   -2.3980   -0.9630 h1        1 MOL      0.078024
     56 H25         7.9550   -1.4970    0.4020 h1        1 MOL      0.078024
     57 N5          7.3280    0.5070   -0.8950 n         1 MOL     -0.844713
     58 C19         7.4290    1.8860   -1.4450 c3        1 MOL      0.267292
     59 C20         7.4210    2.9870   -0.4620 c         1 MOL      0.425386
     60 O10         7.9050    4.1230   -0.7250 o         1 MOL     -0.573290
     61 C21         6.3240    2.1770   -2.4230 c3        1 MOL     -0.201773
     62 C22         4.9210    1.6920   -2.0520 c         1 MOL      0.847421
     63 O11         4.6180    1.6890   -0.8860 o         1 MOL     -0.783760
     64 O12         4.0960    1.2690   -2.8990 o         1 MOL     -0.783760
     65 H26         6.6300    0.4200   -0.1730 hn        1 MOL      0.379749
     66 H27         8.3160    2.0020   -2.0630 h1        1 MOL      0.036164
     67 H28         6.5600    1.6890   -3.3580 hc        1 MOL      0.032131
     68 H29         6.3450    3.2600   -2.5400 hc        1 MOL      0.032131
     69 N6          6.9960    2.7160    0.7440 n         1 MOL     -0.275397
     70 C23         6.7780    3.7370    1.7510 c3        1 MOL     -0.088797
     71 C24         5.4620    4.4510    1.6880 c         1 MOL      0.511949
     72 O13         5.2990    5.6110    2.1500 o         1 MOL     -0.592032
     73 H30         6.5610    1.8250    0.9050 hn        1 MOL      0.268656
     74 H31         7.5850    4.4700    1.7070 h1        1 MOL      0.080026
     75 H32         6.8450    3.2510    2.7290 h1        1 MOL      0.080026
     76 N7          4.3810    3.8250    1.1410 n         1 MOL     -0.343330
     77 C25         2.9880    4.2440    0.9440 c3        1 MOL     -0.044019
     78 C26         2.1160    3.0390    1.1750 c         1 MOL      0.549393
     79 O14         2.4320    1.8780    0.8870 o         1 MOL     -0.613110
     80 C27         2.7520    4.7300   -0.4690 c3        1 MOL      0.442303
     81 C28         3.5170    6.0240   -0.9040 c3        1 MOL     -0.421931
     82 C29         2.7600    7.3190   -0.5890 c         1 MOL      0.710066
     83 N8          3.2210    8.4680   -1.0090 n         1 MOL     -0.771431
     84 O15         1.7180    7.3270    0.0630 o         1 MOL     -0.565633
     85 H33         4.6500    3.0080    0.6210 hn        1 MOL      0.257120
     86 H34         2.7630    5.0270    1.6560 h1        1 MOL      0.072854
     87 H35         1.7090    4.9060   -0.7110 hc        1 MOL     -0.084104
     88 H36         3.0320    3.9120   -1.1470 hc        1 MOL     -0.084104
     89 H37         3.7060    5.9010   -1.9690 hc        1 MOL      0.100489
     90 H38         4.4870    6.0430   -0.4090 hc        1 MOL      0.100489
     91 H39         3.9650    8.4570   -1.6980 hn        1 MOL      0.344275
     92 H40         2.7330    9.3380   -0.8430 hn        1 MOL      0.344275
     93 N9          0.8720    3.3410    1.6200 n         1 MOL     -0.412807
     94 C30        -0.2480    2.4600    1.8740 c3        1 MOL      0.129101
     95 C31        -1.4370    2.9970    1.0420 c         1 MOL      0.399952
     96 O16        -2.0800    3.9670    1.3230 o         1 MOL     -0.547415
     97 C32        -0.5870    2.2390    3.3560 c3        1 MOL      0.480858
     98 C33        -1.7080    1.2210    3.5010 c3        1 MOL     -0.342278
     99 C34         0.5250    1.8160    4.2680 c3        1 MOL     -0.342278
    100 H41         0.7950    4.3440    1.6840 hn        1 MOL      0.204256
    101 H42         0.0730    1.5060    1.4540 h1        1 MOL      0.049465
    102 H43        -0.9860    3.1710    3.7470 hc        1 MOL     -0.111831
    103 H44        -1.9310    1.0270    4.5480 hc        1 MOL      0.058964
    104 H45        -2.6350    1.5900    3.0530 hc        1 MOL      0.058964
    105 H46        -1.3600    0.3280    2.9600 hc        1 MOL      0.058964
    106 H47         1.2680    2.5850    4.0630 hc        1 MOL      0.058964
    107 H48         0.2330    1.8110    5.3230 hc        1 MOL      0.058964
    108 H49         0.8200    0.8170    3.9720 hc        1 MOL      0.058964
    109 N10        -1.7410    2.2280   -0.0080 n         1 MOL     -0.163425
    110 C35        -2.9440    2.3560   -0.9190 c3        1 MOL     -0.000699
    111 C36        -4.1890    1.8210   -0.1340 c         1 MOL      0.266334
    112 O17        -4.0500    0.8760    0.6390 o         1 MOL     -0.159029
    113 C37        -2.7690    1.5400   -2.2080 c3        1 MOL     -0.409387
    114 C38        -3.8540    1.7380   -3.2940 c         1 MOL      0.580571
    115 N11        -3.8650    2.8160   -3.9900 n         1 MOL     -0.670065
    116 O18        -4.7030    0.8530   -3.6160 o         1 MOL     -0.458859
    117 H50        -1.1310    1.4360   -0.1140 hn        1 MOL      0.107807
    118 H51        -3.1880    3.3750   -1.1960 h1        1 MOL      0.076957
    119 H52        -2.7010    0.4630   -2.0070 hc        1 MOL      0.189106
    120 H53        -1.8620    1.7610   -2.7670 hc        1 MOL      0.189106
    121 H54        -3.3330    3.6180   -3.6980 hn        1 MOL      0.326474
    122 H55        -4.6940    2.9730   -4.5430 hn        1 MOL      0.326474
    123 N12        -5.4330    2.3360   -0.4140 n         1 MOL     -0.435667
    124 C39        -6.6900    1.8300    0.1060 c3        1 MOL      0.283934
    125 C40        -6.8240    0.3440    0.0520 c         1 MOL      0.481765
    126 O19        -7.3780   -0.2790    0.9560 o         1 MOL     -0.537306
    127 C41        -7.7800    2.4360   -0.7870 c3        1 MOL     -0.237046
    128 C42        -9.2060    2.0920   -0.2440 ca        1 MOL     -0.043700
    129 C43        -9.6340    2.5220    0.9890 ca        1 MOL     -0.061733
    130 C44        -9.9620    1.2470   -1.0660 ca        1 MOL     -0.061733
    131 C45       -10.9190    2.1480    1.4370 ca        1 MOL     -0.355336
    132 C46       -11.2980    0.9420   -0.6940 ca        1 MOL     -0.355336
    133 C47       -11.7330    1.3560    0.5690 ca        1 MOL      0.465417
    134 O20       -13.0730    1.0240    0.8080 oh        1 MOL     -0.585133
    135 H56        -5.4150    3.1350   -1.0280 hn        1 MOL      0.246780
    136 H57        -6.8870    2.2730    1.0800 h1        1 MOL      0.015036
    137 H58        -7.6710    2.0070   -1.7880 hc        1 MOL      0.068414
    138 H59        -7.6320    3.5080   -0.8080 hc        1 MOL      0.068414
    139 H60        -9.0110    3.1820    1.5800 ha        1 MOL      0.128765
    140 H61        -9.4750    0.9120   -1.9580 ha        1 MOL      0.128765
    141 H62       -11.4430    2.5440    2.2930 ha        1 MOL      0.165929
    142 H63       -11.8110    0.2140   -1.3080 ha        1 MOL      0.165929
    143 H64       -13.3580    0.3140    0.2280 ho        1 MOL      0.383664
    144 N13        -6.3720   -0.2210   -1.0390 n         1 MOL     -0.202202
    145 C48        -6.2690   -1.7220   -1.0080 c3        1 MOL      0.030264
    146 C49        -5.4860   -2.4560    0.0740 c         1 MOL      0.355834
    147 O21        -5.9370   -3.4690    0.6380 o         1 MOL     -0.518312
    148 C50        -5.6640   -2.1500   -2.3510 c3        1 MOL      0.105439
    149 C51        -6.7140   -2.0660   -3.4410 c3        1 MOL     -0.262673
    150 C52        -6.0860   -2.5320   -4.7390 c         1 MOL      0.750268
    151 O22        -5.5460   -3.6620   -4.7750 o         1 MOL     -0.748387
    152 O23        -6.2940   -1.8910   -5.7890 o         1 MOL     -0.748387
    153 H65        -5.8640    0.3070   -1.7390 hn        1 MOL      0.150343
    154 H66        -7.2990   -2.0600   -1.0450 h1        1 MOL      0.040639
    155 H67        -5.4260   -3.2120   -2.2560 hc        1 MOL      0.003755
    156 H68        -4.7390   -1.5940   -2.5170 hc        1 MOL      0.003755
    157 H69        -6.9520   -1.0080   -3.5450 hc        1 MOL      0.019799
    158 H70        -7.6180   -2.6200   -3.1830 hc        1 MOL      0.019799
    159 N14        -4.3200   -1.9040    0.3840 n         1 MOL     -0.208716
    160 C53        -3.5200   -2.2840    1.5630 c3        1 MOL      0.037154
    161 C54        -4.0430   -1.7360    2.9070 c         1 MOL      0.424835
    162 O24        -3.8160   -2.4440    3.9140 o         1 MOL     -0.555747
    163 C55        -2.1050   -1.7820    1.2300 c3        1 MOL     -0.126363
    164 C56        -1.5150   -2.1120   -0.1660 c3        1 MOL      0.015510
    165 C57        -0.1500   -1.4810   -0.2660 c         1 MOL      0.709835
    166 O25         0.9050   -2.1380   -0.2340 o         1 MOL     -0.711317
    167 O26        -0.0830   -0.2750   -0.5680 o         1 MOL     -0.711317
    168 H71        -3.9880   -1.1460   -0.1920 hn        1 MOL      0.095265
    169 H72        -3.4620   -3.3690    1.5520 h1        1 MOL      0.079162
    170 H73        -1.4070   -2.3290    1.8650 hc        1 MOL      0.093618
    171 H74        -2.0480   -0.7120    1.3720 hc        1 MOL      0.093618
    172 H75        -2.1570   -1.8110   -1.0060 hc        1 MOL     -0.017471
    173 H76        -1.2980   -3.1690   -0.2910 hc        1 MOL     -0.017471
    174 N15        -4.8030   -0.6130    2.8700 n         1 MOL     -0.033005
    175 C58        -5.6110   -0.1200    4.0010 c3        1 MOL     -0.169969
    176 H77        -5.1100    0.7330    4.4600 h1        1 MOL      0.062118
    177 H78        -6.5920    0.1870    3.6410 h1        1 MOL      0.062118
    178 H79        -5.7260   -0.9130    4.7390 h1        1 MOL      0.062118
    179 H80        -4.7800   -0.0400    2.0360 hn        1 MOL      0.017925
    180 Ca1         2.4380    0.1620   -1.1440 Ca        1 MOL      1.720867
    181 O27         0.8030    2.2090   -2.0990 oh        1 MOL     -0.844623
    182 H81         0.3770    1.8360   -2.8700 ho        1 MOL      0.392219
    183 H82         1.2780    2.9690   -2.4370 ho        1 MOL      0.392219
    184 O28         0.9580   -0.2140   -3.7310 oh        1 MOL     -0.844623
    185 H83         0.1100   -0.3890   -4.1340 ho        1 MOL      0.392219
    186 H84         1.5010   -0.9730   -3.9740 ho        1 MOL      0.392219
@<TRIPOS>BOND
     1    1    2 1   
     2    1    4 1   
     3    1    5 1   
     4    1    6 1   
     5    2    3 2   
     6    2    7 1   
     7    7    8 1   
     8    7   15 1   
     9    8    9 1   
    10    8   11 1   
    11    8   16 1   
    12    9   10 2   
    13    9   19 1   
    14   11   12 1   
    15   11   17 1   
    16   11   18 1   
    17   12   13 1   
    18   12   14 1   
    19   19   20 1   
    20   19   27 1   
    21   20   21 1   
    22   20   23 1   
    23   20   28 1   
    24   21   22 2   
    25   21   38 1   
    26   23   24 1   
    27   23   25 1   
    28   23   29 1   
    29   24   26 1   
    30   24   30 1   
    31   24   31 1   
    32   25   32 1   
    33   25   33 1   
    34   25   34 1   
    35   26   35 1   
    36   26   36 1   
    37   26   37 1   
    38   38   39 1   
    39   38   46 1   
    40   39   40 1   
    41   39   42 1   
    42   39   47 1   
    43   40   41 2   
    44   40   50 1   
    45   42   43 1   
    46   42   48 1   
    47   42   49 1   
    48   43   44 1   
    49   43   45 1   
    50   50   51 1   
    51   50   54 1   
    52   51   52 1   
    53   51   55 1   
    54   51   56 1   
    55   52   53 2   
    56   52   57 1   
    57   57   58 1   
    58   57   65 1   
    59   58   59 1   
    60   58   61 1   
    61   58   66 1   
    62   59   60 2   
    63   59   69 1   
    64   61   62 1   
    65   61   67 1   
    66   61   68 1   
    67   62   63 1   
    68   62   64 1   
    69   69   70 1   
    70   69   73 1   
    71   70   71 1   
    72   70   74 1   
    73   70   75 1   
    74   71   72 2   
    75   71   76 1   
    76   76   77 1   
    77   76   85 1   
    78   77   78 1   
    79   77   80 1   
    80   77   86 1   
    81   78   79 2   
    82   78   93 1   
    83   80   81 1   
    84   80   87 1   
    85   80   88 1   
    86   81   82 1   
    87   81   89 1   
    88   81   90 1   
    89   82   83 1   
    90   82   84 2   
    91   83   91 1   
    92   83   92 1   
    93   93   94 1   
    94   93  100 1   
    95   94   95 1   
    96   94   97 1   
    97   94  101 1   
    98   95   96 2   
    99   95  109 1   
   100   97   98 1   
   101   97   99 1   
   102   97  102 1   
   103   98  103 1   
   104   98  104 1   
   105   98  105 1   
   106   99  106 1   
   107   99  107 1   
   108   99  108 1   
   109  109  110 1   
   110  109  117 1   
   111  110  111 1   
   112  110  113 1   
   113  110  118 1   
   114  111  112 2   
   115  111  123 1   
   116  113  114 1   
   117  113  119 1   
   118  113  120 1   
   119  114  115 1   
   120  114  116 2   
   121  115  121 1   
   122  115  122 1   
   123  123  124 1   
   124  123  135 1   
   125  124  125 1   
   126  124  127 1   
   127  124  136 1   
   128  125  126 2   
   129  125  144 1   
   130  127  128 1   
   131  127  137 1   
   132  127  138 1   
   133  128  129 ar  
   134  128  130 ar  
   135  129  131 ar  
   136  129  139 1   
   137  130  132 ar  
   138  130  140 1   
   139  131  133 ar  
   140  131  141 1   
   141  132  133 ar  
   142  132  142 1   
   143  133  134 1   
   144  134  143 1   
   145  144  145 1   
   146  144  153 1   
   147  145  146 1   
   148  145  148 1   
   149  145  154 1   
   150  146  147 2   
   151  146  159 1   
   152  148  149 1   
   153  148  155 1   
   154  148  156 1   
   155  149  150 1   
   156  149  157 1   
   157  149  158 1   
   158  150  151 1   
   159  150  152 1   
   160  159  160 1   
   161  159  168 1   
   162  160  161 1   
   163  160  163 1   
   164  160  169 1   
   165  161  162 2   
   166  161  174 1   
   167  163  164 1   
   168  163  170 1   
   169  163  171 1   
   170  164  165 1   
   171  164  172 1   
   172  164  173 1   
   173  165  166 1   
   174  165  167 1   
   175  174  175 1   
   176  174  179 1   
   177  175  176 1   
   178  175  177 1   
   179  175  178 1   
   180  181  182 1   
   181  181  183 1   
   182  184  185 1   
   183  184  186 1   
@<TRIPOS>SUBSTRUCTURE
     1 MOL         1 TEMP              0 ****  ****    0 ROOT
