@<TRIPOS>MOLECULE
MOL
  175   173     1     0     0
SMALL
resp


@<TRIPOS>ATOM
      1 C1         -0.4870    3.1840    6.0330 c3        1 MOL     -0.326633
      2 C2         -0.7240    2.6150    4.6300 c         1 MOL      0.723390
      3 O1          0.0660    2.8170    3.7310 o         1 MOL     -0.554479
      4 H1          0.4820    3.6820    6.0640 hc        1 MOL      0.082768
      5 H2         -1.2720    3.9010    6.2730 hc        1 MOL      0.082768
      6 H3         -0.5000    2.3730    6.7620 hc        1 MOL      0.082768
      7 N1         -1.9380    2.2080    4.2540 n         1 MOL     -0.623648
      8 C3         -2.3850    1.9100    2.9390 c3        1 MOL      0.070899
      9 C4         -2.9480    3.1490    2.2320 c         1 MOL      0.628229
     10 O2         -3.9940    3.6250    2.6470 o         1 MOL     -0.625067
     11 C5         -3.5060    0.8690    2.8420 c3        1 MOL     -0.144229
     12 C6         -3.9530    0.5830    1.4270 c         1 MOL      1.133851
     13 O3         -5.0440    0.0600    1.2500 o         1 MOL     -0.942194
     14 O4         -3.2530    0.8320    0.4210 o         1 MOL     -0.942194
     15 H4         -2.6990    2.3200    4.9130 hn        1 MOL      0.314136
     16 H5         -1.5660    1.5180    2.3360 h1        1 MOL     -0.007003
     17 H6         -4.3870    1.2890    3.3490 hc        1 MOL      0.009972
     18 H7         -3.2050   -0.1010    3.2340 hc        1 MOL      0.009972
     19 N2         -2.3430    3.5490    1.1490 n         1 MOL     -0.229460
     20 C7         -2.6170    4.8260    0.5290 c3        1 MOL      0.169471
     21 C8         -3.6450    4.8740   -0.6660 c         1 MOL      0.375249
     22 O5         -4.2490    5.9220   -0.8650 o         1 MOL     -0.565007
     23 C9         -1.2170    5.4050    0.2270 c3        1 MOL     -0.294590
     24 H8         -1.5120    3.0410    0.8940 hn        1 MOL      0.171842
     25 H9         -2.9850    5.4670    1.3340 h1        1 MOL      0.014899
     26 H10        -0.7600    5.4810    1.2190 hc        1 MOL      0.079640
     27 H11        -0.5670    4.8060   -0.4080 hc        1 MOL      0.079640
     28 H12        -1.2860    6.3830   -0.2610 hc        1 MOL      0.079640
     29 N3         -3.7350    3.8280   -1.4980 n         1 MOL     -0.154416
     30 C10        -4.8110    3.6400   -2.5120 c3        1 MOL      0.018487
     31 C11        -6.0410    2.8430   -1.9920 c         1 MOL      0.420433
     32 O6         -6.9470    2.5730   -2.7880 o         1 MOL     -0.548120
     33 C12        -4.2910    3.2050   -3.9270 c3        1 MOL     -0.215096
     34 C13        -3.2150    2.1640   -3.9480 c         1 MOL      0.775186
     35 O7         -2.6620    1.8700   -5.0590 o         1 MOL     -0.743735
     36 O8         -2.8550    1.6350   -2.9040 o         1 MOL     -0.743735
     37 H13        -2.9100    3.2650   -1.6210 hn        1 MOL      0.214881
     38 H14        -5.2000    4.5990   -2.8220 h1        1 MOL      0.077728
     39 H15        -3.9240    4.1420   -4.3490 hc        1 MOL      0.048927
     40 H16        -5.1650    2.8400   -4.4730 hc        1 MOL      0.048927
     41 N4         -6.0250    2.4800   -0.7480 n         1 MOL     -0.200021
     42 C14        -7.2390    2.0150   -0.0940 c3        1 MOL     -0.129269
     43 C15        -7.7640    0.6350   -0.4910 c         1 MOL      0.421062
     44 O9         -8.9030    0.2890   -0.1580 o         1 MOL     -0.568876
     45 H17        -5.2720    2.8040   -0.1580 hn        1 MOL      0.193457
     46 H18        -7.9980    2.7600   -0.2920 h1        1 MOL      0.099483
     47 H19        -7.1180    2.0070    0.9970 h1        1 MOL      0.099483
     48 N5         -6.9890   -0.0910   -1.2440 n         1 MOL     -0.141485
     49 C16        -7.1830   -1.4890   -1.6670 c3        1 MOL     -0.078498
     50 C17        -7.1270   -2.5730   -0.5530 c         1 MOL      0.463954
     51 O10        -7.8110   -3.5630   -0.5910 o         1 MOL     -0.563885
     52 C18        -6.2140   -1.7450   -2.8690 c3        1 MOL     -0.339820
     53 C19        -4.8290   -1.9420   -2.3040 c         1 MOL      0.732549
     54 N6         -4.4320   -3.1250   -2.1470 n         1 MOL     -0.799030
     55 O11        -4.1390   -1.0290   -1.8890 o         1 MOL     -0.661561
     56 H20        -6.1040    0.3550   -1.4770 hn        1 MOL      0.227981
     57 H21        -8.2340   -1.5090   -1.9720 h1        1 MOL      0.114957
     58 H22        -6.3530   -0.8860   -3.5250 hc        1 MOL      0.121262
     59 H23        -6.4830   -2.6240   -3.4580 hc        1 MOL      0.121262
     60 H24        -4.9390   -3.9200   -2.5100 hn        1 MOL      0.353267
     61 H25        -3.5810   -3.3840   -1.6660 hn        1 MOL      0.353267
     62 N7         -6.5280   -2.1870    0.5620 n         1 MOL     -0.150872
     63 C20        -6.5150   -2.8900    1.8590 c3        1 MOL     -0.254409
     64 C21        -5.2220   -3.6400    2.1950 c         1 MOL      0.542726
     65 O12        -5.1590   -4.3270    3.2400 o         1 MOL     -0.570066
     66 H26        -6.1200   -1.2680    0.5480 hn        1 MOL      0.362699
     67 H27        -7.3290   -3.6100    1.8180 h1        1 MOL      0.122893
     68 H28        -6.7950   -2.2370    2.6880 h1        1 MOL      0.122893
     69 N8         -4.2320   -3.4560    1.3180 n         1 MOL     -0.170648
     70 C22        -2.8640   -3.9140    1.5990 c3        1 MOL     -0.143501
     71 C23        -1.7260   -2.9560    1.2460 c         1 MOL      0.638976
     72 O13        -1.8960   -2.0230    0.4430 o         1 MOL     -0.589816
     73 C24        -2.6700   -5.1850    0.7110 c3        1 MOL      0.343714
     74 C25        -3.6880   -6.2810    1.1190 c3        1 MOL     -0.409691
     75 O14        -2.9760   -4.9110   -0.6160 oh        1 MOL     -0.620580
     76 H29        -4.4150   -2.8090    0.5700 hn        1 MOL      0.123204
     77 H30        -2.8260   -4.2800    2.6250 h1        1 MOL      0.104329
     78 H31        -1.6620   -5.6070    0.7500 h1        1 MOL      0.013834
     79 H32        -3.2060   -5.7170   -1.0920 ho        1 MOL      0.409813
     80 H33        -4.7020   -6.0370    0.7930 hc        1 MOL      0.101387
     81 H34        -3.4240   -7.2200    0.6210 hc        1 MOL      0.101387
     82 H35        -3.6260   -6.3920    2.1990 hc        1 MOL      0.101387
     83 N9         -0.5990   -3.1800    1.8750 n         1 MOL     -0.436321
     84 C26         0.5440   -2.2620    1.7060 c3        1 MOL     -0.022575
     85 C27         1.5890   -2.8560    0.7200 c         1 MOL      0.613751
     86 O15         1.8650   -4.0630    0.7650 o         1 MOL     -0.596219
     87 C28         1.0010   -1.6420    3.0830 c3        1 MOL      0.093895
     88 C29         1.6550   -2.6390    4.0630 c3        1 MOL     -0.142504
     89 C30        -0.1670   -0.9010    3.7650 c3        1 MOL     -0.109696
     90 C31         2.2520   -1.9440    5.3050 c3        1 MOL     -0.017166
     91 H36        -0.4500   -3.8760    2.5890 hn        1 MOL      0.259054
     92 H37         0.2350   -1.3850    1.1390 h1        1 MOL      0.026414
     93 H38         1.7580   -0.9080    2.8420 hc        1 MOL     -0.040737
     94 H39         2.3360   -3.2940    3.5260 hc        1 MOL      0.049258
     95 H40         0.9420   -3.3770    4.4410 hc        1 MOL      0.049258
     96 H41         0.2490   -0.1350    4.4280 hc        1 MOL      0.039393
     97 H42        -0.6760   -0.3520    2.9630 hc        1 MOL      0.039393
     98 H43        -0.8880   -1.5200    4.2960 hc        1 MOL      0.039393
     99 H44         2.9750   -1.1590    5.0850 hc        1 MOL      0.002569
    100 H45         1.4340   -1.6230    5.9520 hc        1 MOL      0.002569
    101 H46         2.7350   -2.7020    5.9220 hc        1 MOL      0.002569
    102 N10         2.0520   -2.0200   -0.1950 n         1 MOL     -0.548189
    103 C32         3.1040   -2.2210   -1.1960 c3        1 MOL      0.397248
    104 C33         4.3780   -1.3830   -0.8990 c         1 MOL      0.243508
    105 O16         4.3570   -0.6160    0.0190 o         1 MOL     -0.284076
    106 C34         2.5170   -1.9240   -2.6480 c3        1 MOL     -0.158125
    107 C35         3.2680   -2.5300   -3.8480 c         1 MOL      0.567999
    108 O17         4.4790   -2.8930   -3.7020 o         1 MOL     -0.664293
    109 O18         2.8380   -2.3580   -5.0180 o         1 MOL     -0.664293
    110 H47         1.7370   -1.0670   -0.0520 hn        1 MOL      0.293192
    111 H48         3.4050   -3.2670   -1.2700 h1        1 MOL      0.002844
    112 H49         2.4330   -0.8440   -2.7980 hc        1 MOL      0.039978
    113 H50         1.5100   -2.3300   -2.7290 hc        1 MOL      0.039978
    114 N11         5.5510   -1.7140   -1.5370 n         1 MOL     -0.598163
    115 C36         6.9340   -1.2080   -1.1380 c3        1 MOL      0.655122
    116 C37         7.0350    0.2590   -0.7540 c         1 MOL      0.153655
    117 O19         7.5120    0.4170    0.3440 o         1 MOL     -0.482557
    118 C38         8.1660   -1.6770   -1.9770 c3        1 MOL     -0.267846
    119 C39         9.5170   -1.5750   -1.2240 ca        1 MOL      0.058375
    120 C40         9.6740   -2.3690   -0.0950 ca        1 MOL     -0.125559
    121 C41        10.4780   -0.6110   -1.5600 ca        1 MOL     -0.125559
    122 C42        10.8870   -2.2750    0.6340 ca        1 MOL     -0.126782
    123 C43        11.7580   -0.4940   -0.9110 ca        1 MOL     -0.126782
    124 C44        11.9160   -1.3770    0.1610 ca        1 MOL     -0.124818
    125 H51         5.5380   -2.3450   -2.3240 hn        1 MOL      0.250662
    126 H52         6.9950   -1.6990   -0.1750 h1        1 MOL     -0.022759
    127 H53         8.1850   -1.0550   -2.8700 hc        1 MOL      0.071946
    128 H54         8.0800   -2.7430   -2.2060 hc        1 MOL      0.071946
    129 H55         8.9180   -3.0790    0.1920 ha        1 MOL      0.106294
    130 H56        10.3170    0.0910   -2.3640 ha        1 MOL      0.106294
    131 H57        11.0310   -2.8540    1.5340 ha        1 MOL      0.119434
    132 H58        12.5000    0.2180   -1.2330 ha        1 MOL      0.119434
    133 H59        12.8660   -1.3220    0.6690 ha        1 MOL      0.090042
    134 N12         6.6530    1.2560   -1.5640 n         1 MOL      0.005738
    135 C45         6.6470    2.6500   -1.0610 c3        1 MOL      0.079392
    136 C46         5.7680    3.0150    0.2090 c         1 MOL      0.202203
    137 O20         6.0440    3.9820    0.9210 o         1 MOL     -0.468686
    138 C47         6.2640    3.5400   -2.2330 c3        1 MOL     -0.070707
    139 C48         6.4930    2.6720   -3.4840 c3        1 MOL     -0.000375
    140 C49         6.4060    1.2370   -2.9490 c3        1 MOL     -0.202601
    141 H60         7.6560    2.9460   -0.7870 h1        1 MOL      0.064100
    142 H61         5.2170    3.8360   -2.2830 hc        1 MOL      0.045149
    143 H62         6.9010    4.4160   -2.1680 hc        1 MOL      0.045149
    144 H63         5.7890    2.8640   -4.2980 hc        1 MOL      0.022273
    145 H64         7.4910    2.9620   -3.8270 hc        1 MOL      0.022273
    146 H65         5.3920    0.8480   -3.0460 h1        1 MOL      0.103722
    147 H66         7.0890    0.5520   -3.4440 h1        1 MOL      0.103722
    148 N13         4.6800    2.2020    0.5700 n         1 MOL      0.032668
    149 C50         3.8080    2.4180    1.6960 c3        1 MOL     -0.317223
    150 C51         4.4100    1.8050    3.0050 c         1 MOL      0.535456
    151 O21         4.4010    2.4350    4.0640 o         1 MOL     -0.580756
    152 C52         2.4070    1.7490    1.4820 c3        1 MOL      0.376981
    153 C53         1.6740    2.4390    0.3690 c3        1 MOL     -0.265839
    154 C54         0.4850    1.5760   -0.2010 c         1 MOL      0.923656
    155 O22         0.4210    0.4080   -0.0320 o         1 MOL     -0.835522
    156 O23        -0.4460    2.0410   -0.8890 o         1 MOL     -0.835522
    157 H67         4.6060    1.3830   -0.0210 hn        1 MOL      0.065607
    158 H68         3.5400    3.4730    1.8060 h1        1 MOL      0.118779
    159 H69         1.8410    1.9450    2.3980 hc        1 MOL     -0.045766
    160 H70         2.5900    0.6940    1.2810 hc        1 MOL     -0.045766
    161 H71         2.3170    2.6280   -0.5020 hc        1 MOL      0.036221
    162 H72         1.2510    3.3640    0.7450 hc        1 MOL      0.036221
    163 N14         4.8690    0.6040    2.9030 n         1 MOL     -0.015382
    164 C55         5.7050   -0.1690    3.7960 c3        1 MOL     -0.377195
    165 H73         6.6050    0.3980    4.0310 h1        1 MOL      0.122585
    166 H74         5.1580   -0.3800    4.7150 h1        1 MOL      0.122585
    167 H75         5.9820   -1.1070    3.3140 h1        1 MOL      0.122585
    168 H76         4.9510    0.0730    2.0510 hn        1 MOL      0.106182
    169 Ca1        -1.7800   -0.0870   -1.3500 Ca        1 MOL      1.844157
    170 O24        -0.0560   -0.1050   -3.3730 oh        1 MOL     -0.873829
    171 H77         0.8180    0.2960   -3.4450 ho        1 MOL      0.424462
    172 H78        -0.4010   -0.1050   -4.2610 ho        1 MOL      0.424462
    173 O25        -1.9500   -2.1730   -3.1630 oh        1 MOL     -0.873829
    174 H79        -2.6680   -2.6920   -3.5250 ho        1 MOL      0.424462
    175 H80        -1.2140   -2.3240   -3.7510 ho        1 MOL      0.424462
@<TRIPOS>BOND
     1    1    2 1   
     2    1    4 1   
     3    1    5 1   
     4    1    6 1   
     5    2    3 2   
     6    2    7 1   
     7    7    8 1   
     8    7   15 1   
     9    8    9 1   
    10    8   11 1   
    11    8   16 1   
    12    9   10 2   
    13    9   19 1   
    14   11   12 1   
    15   11   17 1   
    16   11   18 1   
    17   12   13 1   
    18   12   14 1   
    19   19   20 1   
    20   19   24 1   
    21   20   21 1   
    22   20   23 1   
    23   20   25 1   
    24   21   22 2   
    25   21   29 1   
    26   23   26 1   
    27   23   27 1   
    28   23   28 1   
    29   29   30 1   
    30   29   37 1   
    31   30   31 1   
    32   30   33 1   
    33   30   38 1   
    34   31   32 2   
    35   31   41 1   
    36   33   34 1   
    37   33   39 1   
    38   33   40 1   
    39   34   35 1   
    40   34   36 1   
    41   41   42 1   
    42   41   45 1   
    43   42   43 1   
    44   42   46 1   
    45   42   47 1   
    46   43   44 2   
    47   43   48 1   
    48   48   49 1   
    49   48   56 1   
    50   49   50 1   
    51   49   52 1   
    52   49   57 1   
    53   50   51 2   
    54   50   62 1   
    55   52   53 1   
    56   52   58 1   
    57   52   59 1   
    58   53   54 1   
    59   53   55 2   
    60   54   60 1   
    61   54   61 1   
    62   62   63 1   
    63   62   66 1   
    64   63   64 1   
    65   63   67 1   
    66   63   68 1   
    67   64   65 2   
    68   64   69 1   
    69   69   70 1   
    70   69   76 1   
    71   70   71 1   
    72   70   73 1   
    73   70   77 1   
    74   71   72 2   
    75   71   83 1   
    76   73   74 1   
    77   73   75 1   
    78   73   78 1   
    79   74   80 1   
    80   74   81 1   
    81   74   82 1   
    82   75   79 1   
    83   83   84 1   
    84   83   91 1   
    85   84   85 1   
    86   84   87 1   
    87   84   92 1   
    88   85   86 2   
    89   85  102 1   
    90   87   88 1   
    91   87   89 1   
    92   87   93 1   
    93   88   90 1   
    94   88   94 1   
    95   88   95 1   
    96   89   96 1   
    97   89   97 1   
    98   89   98 1   
    99   90   99 1   
   100   90  100 1   
   101   90  101 1   
   102  102  103 1   
   103  102  110 1   
   104  103  104 1   
   105  103  106 1   
   106  103  111 1   
   107  104  105 2   
   108  104  114 1   
   109  106  107 1   
   110  106  112 1   
   111  106  113 1   
   112  107  108 1   
   113  107  109 1   
   114  114  115 1   
   115  114  125 1   
   116  115  116 1   
   117  115  118 1   
   118  115  126 1   
   119  116  117 2   
   120  116  134 1   
   121  118  119 1   
   122  118  127 1   
   123  118  128 1   
   124  119  120 ar  
   125  119  121 ar  
   126  120  122 ar  
   127  120  129 1   
   128  121  123 ar  
   129  121  130 1   
   130  122  124 ar  
   131  122  131 1   
   132  123  124 ar  
   133  123  132 1   
   134  124  133 1   
   135  134  135 1   
   136  134  140 1   
   137  135  136 1   
   138  135  138 1   
   139  135  141 1   
   140  136  137 2   
   141  136  148 1   
   142  138  139 1   
   143  138  142 1   
   144  138  143 1   
   145  139  140 1   
   146  139  144 1   
   147  139  145 1   
   148  140  146 1   
   149  140  147 1   
   150  148  149 1   
   151  148  157 1   
   152  149  150 1   
   153  149  152 1   
   154  149  158 1   
   155  150  151 2   
   156  150  163 1   
   157  152  153 1   
   158  152  159 1   
   159  152  160 1   
   160  153  154 1   
   161  153  161 1   
   162  153  162 1   
   163  154  155 1   
   164  154  156 1   
   165  163  164 1   
   166  163  168 1   
   167  164  165 1   
   168  164  166 1   
   169  164  167 1   
   170  170  171 1   
   171  170  172 1   
   172  173  174 1   
   173  173  175 1   
@<TRIPOS>SUBSTRUCTURE
     1 MOL         1 TEMP              0 ****  ****    0 ROOT
