@<TRIPOS>MOLECULE
MOL
  182   178     1     0     0
SMALL
resp


@<TRIPOS>ATOM
      1 C1          2.5430    2.2250    5.6610 c3        1 MOL     -0.276917
      2 C2          1.8030    2.1500    4.2870 c         1 MOL      0.785267
      3 O1          2.3920    2.2330    3.2440 o         1 MOL     -0.649374
      4 H1          2.7280    1.2160    6.0290 hc        1 MOL      0.065962
      5 H2          3.4920    2.7450    5.5350 hc        1 MOL      0.065962
      6 H3          1.9250    2.7640    6.3790 hc        1 MOL      0.065962
      7 N1          0.5280    1.8960    4.3550 n         1 MOL     -0.624331
      8 C3         -0.3730    1.8080    3.1910 c3        1 MOL      0.195045
      9 C4         -0.4170    3.2270    2.5320 c         1 MOL      0.453362
     10 O2         -0.8620    4.1620    3.1620 o         1 MOL     -0.556410
     11 C5         -1.7410    1.1100    3.4580 c3        1 MOL     -0.186718
     12 C6         -2.5530    0.7730    2.2100 c         1 MOL      0.733362
     13 O3         -2.0470    0.9620    1.0810 o         1 MOL     -0.687454
     14 O4         -3.6570    0.2580    2.3650 o         1 MOL     -0.687454
     15 H4          0.0810    1.8210    5.2640 hn        1 MOL      0.328132
     16 H5          0.1240    1.2670    2.3880 h1        1 MOL      0.052570
     17 H6         -2.3160    1.9360    3.8870 hc        1 MOL      0.039894
     18 H7         -1.6240    0.3230    4.2080 hc        1 MOL      0.039894
     19 N2          0.1880    3.3870    1.3210 n         1 MOL     -0.060578
     20 C7          0.3650    4.7660    0.7200 c3        1 MOL     -0.187753
     21 C8         -0.7980    5.2510   -0.0970 c         1 MOL      0.507748
     22 O5         -1.0380    6.4380   -0.1460 o         1 MOL     -0.545301
     23 C9          1.6460    4.7010   -0.0980 c3        1 MOL     -0.217410
     24 C10         2.0980    6.0670   -0.5870 c3        1 MOL     -0.105870
     25 C11         3.3790    6.0090   -1.3600 c3        1 MOL      0.063214
     26 C12         3.6780    7.3760   -1.8870 c3        1 MOL      0.041375
     27 N3          4.7350    7.4760   -2.9520 n4        1 MOL     -0.436894
     28 H8          0.4880    2.5230    0.8770 hn        1 MOL      0.095867
     29 H9          0.4780    5.5380    1.4820 h1        1 MOL      0.141231
     30 H10         1.5590    3.9540   -0.8810 hc        1 MOL      0.146596
     31 H11         2.3730    4.2890    0.6000 hc        1 MOL      0.146596
     32 H12         2.2540    6.8250    0.1860 hc        1 MOL      0.065813
     33 H13         1.3560    6.5600   -1.2270 hc        1 MOL      0.065813
     34 H14         3.2630    5.3380   -2.2230 hc        1 MOL      0.017804
     35 H15         4.2100    5.6960   -0.7380 hc        1 MOL      0.017804
     36 H16         3.9840    7.9050   -0.9810 hx        1 MOL      0.081956
     37 H17         2.7310    7.8190   -2.2000 hx        1 MOL      0.081956
     38 H18         5.6580    7.2430   -2.6350 hn        1 MOL      0.346247
     39 H19         4.5880    6.8510   -3.7300 hn        1 MOL      0.346247
     40 H20         4.7350    8.4420   -3.2560 hn        1 MOL      0.346247
     41 N4         -1.6060    4.3310   -0.6920 n         1 MOL     -0.341729
     42 C13        -2.8530    4.8070   -1.3700 c3        1 MOL      0.161159
     43 C14        -4.1090    4.6240   -0.4270 c         1 MOL      0.322241
     44 O6         -5.1640    5.2820   -0.5710 o         1 MOL     -0.522712
     45 C15        -3.1410    4.1790   -2.7250 c3        1 MOL     -0.374998
     46 C16        -2.8720    2.6450   -2.8390 c         1 MOL      0.746142
     47 O7         -2.8020    1.9990   -1.7890 o         1 MOL     -0.698937
     48 O8         -2.8130    2.0560   -3.9350 o         1 MOL     -0.698937
     49 H21        -1.4280    3.3390   -0.6650 hn        1 MOL      0.194624
     50 H22        -2.7380    5.8630   -1.6100 h1        1 MOL      0.081091
     51 H23        -2.4120    4.6240   -3.3960 hc        1 MOL      0.102043
     52 H24        -4.1480    4.4730   -3.0210 hc        1 MOL      0.102043
     53 N5         -3.9960    3.7640    0.5640 n         1 MOL     -0.033896
     54 C17        -5.1140    3.3330    1.3770 c3        1 MOL     -0.275667
     55 C18        -6.0540    2.3610    0.7520 c         1 MOL      0.618637
     56 O9         -7.2040    2.2940    1.1310 o         1 MOL     -0.608713
     57 H25        -3.1330    3.2630    0.7230 hn        1 MOL      0.133062
     58 H26        -5.7520    4.2060    1.5170 h1        1 MOL      0.114574
     59 H27        -4.7410    2.9930    2.3510 h1        1 MOL      0.114574
     60 N6         -5.6500    1.6270   -0.1980 n         1 MOL     -0.261078
     61 C19        -6.5310    0.6620   -0.9620 c3        1 MOL     -0.057661
     62 C20        -6.9680   -0.4940    0.0140 c         1 MOL      0.603874
     63 O10        -7.9510   -1.0460   -0.3700 o         1 MOL     -0.572227
     64 C21        -5.8890    0.1950   -2.2840 c3        1 MOL     -0.275494
     65 C22        -4.8500   -0.8900   -2.1090 c         1 MOL      0.523597
     66 N7         -4.9700   -2.0260   -2.7290 n         1 MOL     -0.669136
     67 O11        -3.8920   -0.7290   -1.3220 o         1 MOL     -0.577138
     68 H28        -4.6540    1.6370   -0.3410 hn        1 MOL      0.246708
     69 H29        -7.4990    1.1220   -1.1630 h1        1 MOL      0.116800
     70 H30        -5.4120    1.0570   -2.7680 hc        1 MOL      0.121776
     71 H31        -6.6350   -0.1610   -2.9880 hc        1 MOL      0.121776
     72 H32        -5.6900   -2.1650   -3.4280 hn        1 MOL      0.331760
     73 H33        -4.3510   -2.7710   -2.4270 hn        1 MOL      0.331760
     74 N8         -6.3200   -0.7900    1.1480 n         1 MOL     -0.340297
     75 C23        -6.5720   -1.8810    2.1730 c3        1 MOL     -0.169948
     76 C24        -5.2820   -2.7110    2.3800 c         1 MOL      0.538926
     77 O12        -5.2990   -3.6420    3.1730 o         1 MOL     -0.576855
     78 H34        -5.5350   -0.2150    1.4270 hn        1 MOL      0.293660
     79 H35        -7.3380   -2.5660    1.8200 h1        1 MOL      0.121231
     80 H36        -6.8620   -1.4220    3.1140 h1        1 MOL      0.121231
     81 N9         -4.1010   -2.4390    1.7580 n         1 MOL     -0.095810
     82 C25        -2.9640   -3.3310    1.8340 c3        1 MOL     -0.031590
     83 C26        -1.5860   -2.6410    1.5380 c         1 MOL      0.830775
     84 O13        -1.4470   -1.9050    0.5170 o         1 MOL     -0.700979
     85 C27        -3.1490   -4.7010    1.1500 c3        1 MOL     -0.091944
     86 C28        -3.6830   -4.7200   -0.2740 ca        1 MOL      0.041874
     87 C29        -2.8510   -4.4160   -1.3720 ca        1 MOL     -0.136302
     88 C30        -4.9760   -5.1480   -0.4990 ca        1 MOL     -0.136302
     89 C31        -3.3300   -4.4940   -2.7150 ca        1 MOL     -0.289441
     90 C32        -5.5270   -5.2370   -1.7760 ca        1 MOL     -0.289441
     91 C33        -4.6870   -4.9050   -2.9310 ca        1 MOL      0.352600
     92 O14        -5.1370   -4.9810   -4.1990 oh        1 MOL     -0.553573
     93 H37        -3.9230   -1.5060    1.4230 hn        1 MOL      0.018792
     94 H38        -2.9510   -3.4610    2.9180 h1        1 MOL      0.037237
     95 H39        -3.7650   -5.3350    1.7850 hc        1 MOL      0.059808
     96 H40        -2.2380   -5.2940    1.1120 hc        1 MOL      0.059808
     97 H41        -1.7760   -4.2830   -1.3420 ha        1 MOL      0.157671
     98 H42        -5.5150   -5.4170    0.3940 ha        1 MOL      0.157671
     99 H43        -2.7310   -4.2130   -3.5700 ha        1 MOL      0.144665
    100 H44        -6.5300   -5.6380   -1.8710 ha        1 MOL      0.144665
    101 H45        -6.0800   -5.1410   -4.2600 ho        1 MOL      0.419313
    102 N10        -0.5790   -3.1100    2.2430 n         1 MOL     -0.734233
    103 C34         0.8150   -2.6590    2.0990 c3        1 MOL     -0.015836
    104 C35         1.4820   -3.5600    1.0880 c         1 MOL      0.519061
    105 O15         1.4430   -4.8130    1.2200 o         1 MOL     -0.552739
    106 C36         1.5500   -2.8050    3.4480 c3        1 MOL      0.334034
    107 C37         0.7520   -2.2710    4.6600 c3        1 MOL      0.098950
    108 C38         2.9880   -2.0890    3.3810 c3        1 MOL     -0.597924
    109 C39         1.4910   -2.4960    6.0230 c3        1 MOL     -0.331690
    110 H46        -0.7780   -3.7640    2.9870 hn        1 MOL      0.346609
    111 H47         0.8660   -1.5790    1.9470 h1        1 MOL      0.047999
    112 H48         1.7960   -3.8640    3.5040 hc        1 MOL     -0.032841
    113 H49        -0.1290   -2.9050    4.6550 hc        1 MOL     -0.006146
    114 H50         0.5830   -1.2020    4.5790 hc        1 MOL     -0.006146
    115 H51         3.6210   -2.6300    2.6800 hc        1 MOL      0.131454
    116 H52         2.8230   -1.0340    3.1520 hc        1 MOL      0.131454
    117 H53         3.4740   -2.1380    4.3560 hc        1 MOL      0.131454
    118 H54         2.3510   -1.8750    6.2480 hc        1 MOL      0.083019
    119 H55         0.7280   -2.4230    6.7940 hc        1 MOL      0.083019
    120 H56         1.9640   -3.4810    5.9200 hc        1 MOL      0.083019
    121 N11         2.2190   -2.9850    0.1350 n         1 MOL     -0.201842
    122 C40         3.1360   -3.7310   -0.7850 c3        1 MOL     -0.023735
    123 C41         4.6040   -3.3710   -0.5710 c         1 MOL      0.413346
    124 O16         4.9570   -2.4920    0.1620 o         1 MOL     -0.359117
    125 C42         2.7060   -3.5580   -2.2330 c3        1 MOL      0.001588
    126 O17         2.7170   -2.1780   -2.5090 oh        1 MOL     -0.540467
    127 H57         2.1380   -1.9920   -0.0500 hn        1 MOL      0.386410
    128 H58         3.0350   -4.8040   -0.5750 h1        1 MOL      0.047459
    129 H59         1.6880   -3.9640   -2.2430 h1        1 MOL      0.067476
    130 H60         3.4280   -4.0760   -2.8740 h1        1 MOL      0.067476
    131 H61         2.0130   -1.7690   -2.0070 ho        1 MOL      0.344928
    132 N12         5.5650   -4.0830   -1.1860 n         1 MOL     -0.451197
    133 C43         7.0140   -4.0650   -0.8440 c3        1 MOL      0.201568
    134 C44         7.5620   -2.6300   -0.9630 c         1 MOL      0.444319
    135 O18         8.2660   -2.0890   -0.1580 o         1 MOL     -0.498841
    136 C45         7.8030   -4.9770   -1.7820 c3        1 MOL     -0.511242
    137 H62         5.2090   -4.7120   -1.8860 hn        1 MOL      0.285518
    138 H63         7.1430   -4.3190    0.2080 h1        1 MOL      0.071299
    139 H64         7.4300   -4.9730   -2.8030 hc        1 MOL      0.151116
    140 H65         8.8650   -4.7570   -1.7060 hc        1 MOL      0.151116
    141 H66         7.6060   -5.9800   -1.3980 hc        1 MOL      0.151116
    142 N13         7.2930   -1.9610   -2.1160 n         1 MOL     -0.336012
    143 C46         7.7290   -0.6160   -2.3880 c3        1 MOL      0.041051
    144 C47         7.0650    0.4570   -1.5200 c         1 MOL      0.470751
    145 O19         7.6780    1.5230   -1.2980 o         1 MOL     -0.513023
    146 C48         7.5690   -0.4330   -3.9530 c3        1 MOL     -0.235445
    147 H67         6.7890   -2.4540   -2.8350 hn        1 MOL      0.246865
    148 H68         8.8010   -0.5700   -2.1750 h1        1 MOL      0.098170
    149 H69         7.9270   -1.3050   -4.5030 hc        1 MOL      0.070120
    150 H70         6.5200   -0.2400   -4.1580 hc        1 MOL      0.070120
    151 H71         8.0900    0.5060   -4.1740 hc        1 MOL      0.070120
    152 N14         5.8160    0.2250   -0.9840 n         1 MOL     -0.247721
    153 C49         5.2560    1.0960    0.0290 c3        1 MOL     -0.118388
    154 C50         6.0440    0.9570    1.3530 c         1 MOL      0.507447
    155 O20         6.4900    1.9740    1.9280 o         1 MOL     -0.555694
    156 C51         3.7560    0.7610    0.2430 c3        1 MOL      0.063838
    157 C52         2.9390    0.9330   -1.0860 c3        1 MOL      0.040832
    158 C53         1.5080    0.5220   -0.7880 c         1 MOL      0.815863
    159 O21         1.1900   -0.6510   -1.0380 o         1 MOL     -0.775555
    160 O22         0.6910    1.4430   -0.5260 o         1 MOL     -0.775555
    161 H72         5.3700   -0.6800   -1.0740 hn        1 MOL      0.180893
    162 H73         5.3500    2.1630   -0.1780 h1        1 MOL      0.074336
    163 H74         3.2780    1.3420    1.0400 hc        1 MOL     -0.011906
    164 H75         3.6080   -0.2700    0.5570 hc        1 MOL     -0.011906
    165 H76         3.3310    0.3430   -1.9080 hc        1 MOL     -0.067587
    166 H77         3.0130    1.9890   -1.3620 hc        1 MOL     -0.067587
    167 N15         6.3070   -0.2570    1.7660 n         1 MOL     -0.107778
    168 C54         7.0800   -0.5870    3.0040 c3        1 MOL     -0.285508
    169 H78         6.4230   -0.5220    3.8710 h1        1 MOL      0.116153
    170 H79         7.4780   -1.5990    2.9260 h1        1 MOL      0.116153
    171 H80         7.9020    0.1190    3.1190 h1        1 MOL      0.116153
    172 H81         6.1700   -1.0480    1.1370 hn        1 MOL      0.119793
    173 Ca1        -1.3360    0.0060   -1.4780 Ca        1 MOL      1.734447
    174 O23        -0.7650   -2.1800   -2.8870 oh        1 MOL     -0.845071
    175 H82        -0.3750   -2.8990   -3.3850 ho        1 MOL      0.409689
    176 H83        -1.4290   -1.8200   -3.4750 ho        1 MOL      0.409689
    177 O24        -2.4180   -0.4540   -4.0180 oh        1 MOL     -0.845071
    178 H84        -2.9370   -0.8660   -4.7130 ho        1 MOL      0.409689
    179 H85        -2.7870    0.4150   -3.9300 ho        1 MOL      0.409689
    180 O25         0.0220    1.2030   -3.5690 oh        1 MOL     -0.845071
    181 H86        -0.4880    1.5690   -4.2970 ho        1 MOL      0.409689
    182 H87         0.8500    1.6880   -3.5950 ho        1 MOL      0.409689
@<TRIPOS>BOND
     1    1    2 1   
     2    1    4 1   
     3    1    5 1   
     4    1    6 1   
     5    2    3 2   
     6    2    7 1   
     7    7    8 1   
     8    7   15 1   
     9    8    9 1   
    10    8   11 1   
    11    8   16 1   
    12    9   10 2   
    13    9   19 1   
    14   11   12 1   
    15   11   17 1   
    16   11   18 1   
    17   12   13 1   
    18   12   14 1   
    19   19   20 1   
    20   19   28 1   
    21   20   21 1   
    22   20   23 1   
    23   20   29 1   
    24   21   22 2   
    25   21   41 1   
    26   23   24 1   
    27   23   30 1   
    28   23   31 1   
    29   24   25 1   
    30   24   32 1   
    31   24   33 1   
    32   25   26 1   
    33   25   34 1   
    34   25   35 1   
    35   26   27 1   
    36   26   36 1   
    37   26   37 1   
    38   27   38 1   
    39   27   39 1   
    40   27   40 1   
    41   41   42 1   
    42   41   49 1   
    43   42   43 1   
    44   42   45 1   
    45   42   50 1   
    46   43   44 2   
    47   43   53 1   
    48   45   46 1   
    49   45   51 1   
    50   45   52 1   
    51   46   47 1   
    52   46   48 1   
    53   53   54 1   
    54   53   57 1   
    55   54   55 1   
    56   54   58 1   
    57   54   59 1   
    58   55   56 2   
    59   55   60 1   
    60   60   61 1   
    61   60   68 1   
    62   61   62 1   
    63   61   64 1   
    64   61   69 1   
    65   62   63 2   
    66   62   74 1   
    67   64   65 1   
    68   64   70 1   
    69   64   71 1   
    70   65   66 1   
    71   65   67 2   
    72   66   72 1   
    73   66   73 1   
    74   74   75 1   
    75   74   78 1   
    76   75   76 1   
    77   75   79 1   
    78   75   80 1   
    79   76   77 2   
    80   76   81 1   
    81   81   82 1   
    82   81   93 1   
    83   82   83 1   
    84   82   85 1   
    85   82   94 1   
    86   83   84 2   
    87   83  102 1   
    88   85   86 1   
    89   85   95 1   
    90   85   96 1   
    91   86   87 ar  
    92   86   88 ar  
    93   87   89 ar  
    94   87   97 1   
    95   88   90 ar  
    96   88   98 1   
    97   89   91 ar  
    98   89   99 1   
    99   90   91 ar  
   100   90  100 1   
   101   91   92 1   
   102   92  101 1   
   103  102  103 1   
   104  102  110 1   
   105  103  104 1   
   106  103  106 1   
   107  103  111 1   
   108  104  105 2   
   109  104  121 1   
   110  106  107 1   
   111  106  108 1   
   112  106  112 1   
   113  107  109 1   
   114  107  113 1   
   115  107  114 1   
   116  108  115 1   
   117  108  116 1   
   118  108  117 1   
   119  109  118 1   
   120  109  119 1   
   121  109  120 1   
   122  121  122 1   
   123  121  127 1   
   124  122  123 1   
   125  122  125 1   
   126  122  128 1   
   127  123  124 2   
   128  123  132 1   
   129  125  126 1   
   130  125  129 1   
   131  125  130 1   
   132  126  131 1   
   133  132  133 1   
   134  132  137 1   
   135  133  134 1   
   136  133  136 1   
   137  133  138 1   
   138  134  135 2   
   139  134  142 1   
   140  136  139 1   
   141  136  140 1   
   142  136  141 1   
   143  142  143 1   
   144  142  147 1   
   145  143  144 1   
   146  143  146 1   
   147  143  148 1   
   148  144  145 2   
   149  144  152 1   
   150  146  149 1   
   151  146  150 1   
   152  146  151 1   
   153  152  153 1   
   154  152  161 1   
   155  153  154 1   
   156  153  156 1   
   157  153  162 1   
   158  154  155 2   
   159  154  167 1   
   160  156  157 1   
   161  156  163 1   
   162  156  164 1   
   163  157  158 1   
   164  157  165 1   
   165  157  166 1   
   166  158  159 1   
   167  158  160 1   
   168  167  168 1   
   169  167  172 1   
   170  168  169 1   
   171  168  170 1   
   172  168  171 1   
   173  174  175 1   
   174  174  176 1   
   175  177  178 1   
   176  177  179 1   
   177  180  181 1   
   178  180  182 1   
@<TRIPOS>SUBSTRUCTURE
     1 MOL         1 TEMP              0 ****  ****    0 ROOT
