@<TRIPOS>MOLECULE
MOL
  176   174     1     0     0
SMALL
resp


@<TRIPOS>ATOM
      1 C1         -0.5640   -4.3350    6.2440 c3        1 MOL     -0.304089
      2 C2         -0.4700   -3.8220    4.7440 c         1 MOL      0.688582
      3 O1         -1.5460   -3.5530    4.1780 o         1 MOL     -0.565698
      4 H1         -0.9380   -5.3590    6.2540 hc        1 MOL      0.079092
      5 H2          0.4250   -4.3060    6.7020 hc        1 MOL      0.079092
      6 H3         -1.2440   -3.6950    6.8060 hc        1 MOL      0.079092
      7 N1          0.7360   -3.6010    4.2260 n         1 MOL     -0.643742
      8 C3          1.0800   -3.1450    2.8270 c3        1 MOL      0.191806
      9 C4          1.1390   -4.4150    1.9210 c         1 MOL      0.567896
     10 O2          1.5240   -5.4860    2.4170 o         1 MOL     -0.529176
     11 C5          2.3870   -2.2750    2.8140 c3        1 MOL     -0.084664
     12 C6          2.5690   -1.4130    1.5830 c         1 MOL      0.615998
     13 O3          2.4790   -1.9300    0.4520 o         1 MOL     -0.678638
     14 O4          2.6200   -0.1430    1.6320 o         1 MOL     -0.678638
     15 H4          1.4550   -4.0250    4.7870 hn        1 MOL      0.334801
     16 H5          0.3290   -2.5150    2.3390 h1        1 MOL      0.022177
     17 H6          3.1270   -3.0730    2.9280 hc        1 MOL      0.032903
     18 H7          2.4070   -1.6900    3.7340 hc        1 MOL      0.032903
     19 N2          0.8880   -4.2710    0.5810 n         1 MOL     -0.488263
     20 C7          1.1140   -5.3370   -0.4170 c3        1 MOL      0.130744
     21 C8          2.5140   -5.3960   -1.0270 c         1 MOL      0.444435
     22 O5          2.9770   -6.4510   -1.4130 o         1 MOL     -0.548473
     23 C9          0.0730   -5.3800   -1.5180 c3        1 MOL     -0.203818
     24 C10         0.1620   -4.3520   -2.6600 c3        1 MOL      0.008965
     25 C11        -0.6860   -4.5970   -3.8640 c3        1 MOL     -0.104859
     26 C12        -0.8280   -3.3350   -4.7380 c3        1 MOL      0.056342
     27 N3          0.4370   -2.7150   -5.1860 n4        1 MOL     -0.442729
     28 H8          0.4540   -3.4330    0.2190 hn        1 MOL      0.260543
     29 H9          1.0630   -6.2590    0.1590 h1        1 MOL      0.082224
     30 H10        -0.9020   -5.3050   -1.0400 hc        1 MOL      0.084742
     31 H11         0.1270   -6.4180   -1.8550 hc        1 MOL      0.084742
     32 H12         1.2030   -4.2350   -2.9650 hc        1 MOL      0.055489
     33 H13        -0.2780   -3.4140   -2.3170 hc        1 MOL      0.055489
     34 H14        -1.6690   -4.8910   -3.4770 hc        1 MOL      0.059636
     35 H15        -0.2770   -5.4370   -4.4340 hc        1 MOL      0.059636
     36 H16        -1.3780   -2.5940   -4.1620 hx        1 MOL      0.061277
     37 H17        -1.4530   -3.6930   -5.5600 hx        1 MOL      0.061277
     38 H18         0.1500   -1.8950   -5.6960 hn        1 MOL      0.341179
     39 H19         1.0060   -2.3780   -4.4280 hn        1 MOL      0.341179
     40 H20         0.9470   -3.4000   -5.7370 hn        1 MOL      0.341179
     41 N4          3.1130   -4.2060   -1.2300 n         1 MOL     -0.180309
     42 C13         4.4490   -4.0160   -1.8580 c3        1 MOL      0.084618
     43 C14         5.5270   -3.3790   -0.9630 c         1 MOL      0.387293
     44 O6          6.6940   -3.7550   -1.1160 o         1 MOL     -0.513867
     45 C15         4.2510   -3.0890   -3.0340 c3        1 MOL     -0.267247
     46 C16         3.4580   -1.8200   -2.6960 c         1 MOL      0.848840
     47 O7          3.9710   -0.8860   -1.9890 o         1 MOL     -0.802910
     48 O8          2.3090   -1.7490   -3.1250 o         1 MOL     -0.802910
     49 H21         2.5500   -3.4790   -0.8170 hn        1 MOL      0.086856
     50 H22         4.8150   -4.9620   -2.2730 h1        1 MOL      0.109627
     51 H23         3.7510   -3.5930   -3.8620 hc        1 MOL      0.059976
     52 H24         5.2170   -2.7540   -3.4230 hc        1 MOL      0.059976
     53 N5          5.1060   -2.6850    0.1300 n         1 MOL     -0.152429
     54 C17         6.0100   -2.1330    1.1650 c3        1 MOL     -0.113593
     55 C18         6.8010   -0.8360    0.8130 c         1 MOL      0.478712
     56 O9          7.8640   -0.5430    1.3630 o         1 MOL     -0.541573
     57 H25         4.1210   -2.4970    0.1920 hn        1 MOL      0.077523
     58 H26         6.6340   -2.9750    1.4690 h1        1 MOL      0.091643
     59 H27         5.4480   -1.8900    2.0620 h1        1 MOL      0.091643
     60 N6          6.2610   -0.0740   -0.1600 n         1 MOL     -0.293191
     61 C19         6.8590    1.2100   -0.7040 c3        1 MOL      0.000632
     62 C20         6.8220    2.3990    0.2820 c         1 MOL      0.364448
     63 O10         7.4280    3.4730    0.0100 o         1 MOL     -0.525618
     64 C21         5.9790    1.6020   -1.8770 c3        1 MOL     -0.366342
     65 C22         4.5130    2.1410   -1.5610 c         1 MOL      0.805740
     66 N7          3.9760    3.1260   -2.1770 n         1 MOL     -0.742985
     67 O11         3.8530    1.6830   -0.6460 o         1 MOL     -0.689149
     68 H28         5.4890   -0.4730   -0.6770 hn        1 MOL      0.308202
     69 H29         7.8540    0.9860   -1.0700 h1        1 MOL      0.142573
     70 H30         5.8760    0.7400   -2.5400 hc        1 MOL      0.119234
     71 H31         6.4440    2.4470   -2.3990 hc        1 MOL      0.119234
     72 H32         4.4170    3.6650   -2.9000 hn        1 MOL      0.346081
     73 H33         3.0640    3.3510   -1.8040 hn        1 MOL      0.346081
     74 N8          5.9890    2.3410    1.3270 n         1 MOL     -0.087495
     75 C23         5.8160    3.3190    2.3860 c3        1 MOL     -0.246294
     76 C24         4.3420    3.6740    2.6680 c         1 MOL      0.680685
     77 O12         4.0980    4.1070    3.7140 o         1 MOL     -0.576606
     78 H34         5.5310    1.4630    1.5140 hn        1 MOL      0.213289
     79 H35         6.3000    4.2710    2.2010 h1        1 MOL      0.122903
     80 H36         6.1430    2.8690    3.3250 h1        1 MOL      0.122903
     81 N9          3.3610    3.5250    1.7660 n         1 MOL     -0.489581
     82 C25         1.9860    3.7520    2.0370 c3        1 MOL      0.171288
     83 C26         0.9500    2.8300    1.2980 c         1 MOL      0.452451
     84 O13         1.2460    2.1900    0.2150 o         1 MOL     -0.589477
     85 C27         1.6920    5.2570    1.6910 c3        1 MOL     -0.405898
     86 C28         1.6180    5.5390    0.1820 ca        1 MOL      0.082758
     87 C29         0.4790    5.2050   -0.5920 ca        1 MOL     -0.058638
     88 C30         2.6320    6.3470   -0.4180 ca        1 MOL     -0.058638
     89 C31         0.3300    5.6100   -1.9170 ca        1 MOL     -0.344718
     90 C32         2.4410    6.8430   -1.6700 ca        1 MOL     -0.344718
     91 C33         1.2760    6.5070   -2.4360 ca        1 MOL      0.379073
     92 O14         0.9910    7.0960   -3.6190 oh        1 MOL     -0.485469
     93 H37         3.6490    3.1420    0.8680 hn        1 MOL      0.238608
     94 H38         1.8330    3.6170    3.1080 h1        1 MOL      0.100211
     95 H39         2.5880    5.7860    2.0130 hc        1 MOL      0.144889
     96 H40         0.7650    5.5660    2.1720 hc        1 MOL      0.144889
     97 H41        -0.3490    4.6510   -0.1600 ha        1 MOL      0.125726
     98 H42         3.4780    6.6470    0.1760 ha        1 MOL      0.125726
     99 H43        -0.5650    5.3190   -2.4550 ha        1 MOL      0.167555
    100 H44         3.1400    7.5920   -1.9860 ha        1 MOL      0.167555
    101 H45         0.2790    6.5940   -4.0340 ho        1 MOL      0.347300
    102 N10        -0.2600    2.7700    1.9000 n         1 MOL     -0.308371
    103 C34        -1.4400    1.9930    1.4580 c3        1 MOL     -0.142953
    104 C35        -2.5300    2.8630    0.9750 c         1 MOL      0.533439
    105 O15        -2.7340    3.9200    1.5250 o         1 MOL     -0.549995
    106 C36        -1.9100    1.1300    2.6710 c3        1 MOL      0.221639
    107 C37        -2.3390    1.9850    3.9110 c3        1 MOL     -0.184228
    108 C38        -0.7750    0.1760    3.1420 c3        1 MOL     -0.390250
    109 C39        -3.2200    1.1830    4.9350 c3        1 MOL     -0.140897
    110 H46        -0.3090    3.2050    2.8110 hn        1 MOL      0.232234
    111 H47        -1.1380    1.2650    0.7130 h1        1 MOL      0.100676
    112 H48        -2.7930    0.6110    2.3010 hc        1 MOL     -0.028305
    113 H49        -3.0740    2.7320    3.6130 hc        1 MOL      0.082309
    114 H50        -1.4780    2.4100    4.4080 hc        1 MOL      0.082309
    115 H51        -0.6760   -0.6500    2.4430 hc        1 MOL      0.120414
    116 H52         0.1890    0.6670    3.2700 hc        1 MOL      0.120414
    117 H53        -1.0150   -0.3580    4.0560 hc        1 MOL      0.120414
    118 H54        -2.5590    0.6550    5.6240 hc        1 MOL      0.046436
    119 H55        -3.9050    1.8610    5.4450 hc        1 MOL      0.046436
    120 H56        -3.7790    0.4230    4.3950 hc        1 MOL      0.046436
    121 N11        -3.2000    2.4290   -0.0960 n         1 MOL     -0.278614
    122 C40        -4.4620    3.0040   -0.5880 c3        1 MOL     -0.005705
    123 C41        -5.6860    2.3460    0.0550 c         1 MOL      0.598659
    124 O16        -5.5850    1.3510    0.7960 o         1 MOL     -0.468665
    125 C42        -4.5160    2.7360   -2.1050 c3        1 MOL     -0.141607
    126 O17        -4.6080    1.3340   -2.3330 oh        1 MOL     -0.483473
    127 H57        -2.9230    1.5510   -0.5250 hn        1 MOL      0.224787
    128 H58        -4.4310    4.0690   -0.3760 h1        1 MOL      0.089416
    129 H59        -3.5630    3.0370   -2.5370 h1        1 MOL      0.095521
    130 H60        -5.3560    3.2080   -2.5940 h1        1 MOL      0.095521
    131 H61        -3.9780    0.9990   -2.9830 ho        1 MOL      0.422529
    132 N12        -6.8670    2.8380   -0.2380 n         1 MOL     -0.570072
    133 C43        -8.1070    2.1200    0.1540 c3        1 MOL      0.197976
    134 C44        -8.2980    0.6700   -0.3950 c         1 MOL      0.340457
    135 O18        -8.6840   -0.2890    0.3100 o         1 MOL     -0.452939
    136 C45        -9.2050    3.0250   -0.3950 c3        1 MOL     -0.177161
    137 H62        -6.8780    3.6010   -0.8980 hn        1 MOL      0.309707
    138 H63        -8.2490    2.1020    1.2350 h1        1 MOL      0.096641
    139 H64        -9.2530    2.9250   -1.4850 hc        1 MOL      0.054860
    140 H65       -10.1870    2.8150    0.0330 hc        1 MOL      0.054860
    141 H66        -9.0620    4.0800   -0.1840 hc        1 MOL      0.054860
    142 N13        -7.9030    0.4130   -1.6400 n         1 MOL     -0.323679
    143 C46        -7.8200   -1.0420   -2.1450 c3        1 MOL      0.076063
    144 C47        -6.8240   -1.9580   -1.4260 c         1 MOL      0.430788
    145 O19        -6.9910   -3.1590   -1.1750 o         1 MOL     -0.492447
    146 C48        -7.5050   -0.8970   -3.6690 c3        1 MOL     -0.235054
    147 H67        -7.8400    1.0940   -2.3840 hn        1 MOL      0.302112
    148 H68        -8.7960   -1.4940   -2.0010 h1        1 MOL      0.087658
    149 H69        -7.7900   -1.8520   -4.1260 hc        1 MOL      0.061327
    150 H70        -8.1110   -0.0620   -3.9880 hc        1 MOL      0.061327
    151 H71        -6.4810   -0.6560   -3.9340 hc        1 MOL      0.061327
    152 N14        -5.6760   -1.3360   -1.0680 n         1 MOL     -0.088798
    153 C49        -4.7520   -1.8880   -0.0640 c3        1 MOL     -0.489362
    154 C50        -5.2980   -2.0060    1.3880 c         1 MOL      0.673214
    155 O20        -4.9310   -2.8700    2.1230 o         1 MOL     -0.548902
    156 C51        -3.3920   -1.1850   -0.0790 c3        1 MOL      0.266542
    157 C52        -2.6350   -1.2520   -1.3890 c3        1 MOL     -0.071624
    158 C53        -1.1640   -0.7120   -1.2440 c         1 MOL      0.547422
    159 O21        -0.3670   -1.3920   -0.5520 o         1 MOL     -0.709022
    160 O22        -0.8650    0.4880   -1.5990 o         1 MOL     -0.709022
    161 H72        -5.4840   -0.4190   -1.4330 hn        1 MOL      0.037695
    162 H73        -4.5460   -2.9180   -0.3430 h1        1 MOL      0.179149
    163 H74        -2.9040   -1.7590    0.7130 hc        1 MOL      0.033622
    164 H75        -3.4920   -0.1570    0.2740 hc        1 MOL      0.033622
    165 H76        -3.0640   -0.6830   -2.2090 hc        1 MOL     -0.010454
    166 H77        -2.4320   -2.2840   -1.6780 hc        1 MOL     -0.010454
    167 N15        -6.2670   -1.2110    1.8410 n         1 MOL     -0.152643
    168 C54        -6.9350   -1.4320    3.1250 c3        1 MOL     -0.268989
    169 H78        -7.1470   -2.4940    3.2460 h1        1 MOL      0.107216
    170 H79        -6.2880   -1.0960    3.9350 h1        1 MOL      0.107216
    171 H80        -7.8690   -0.8710    3.1500 h1        1 MOL      0.107216
    172 H81        -6.6410   -0.5470    1.1700 hn        1 MOL      0.130027
    173 Ca1         1.7430    0.0410   -0.9580 Ca        1 MOL      1.784689
    174 O23         1.6440    1.6740   -3.1160 oh        1 MOL     -0.906789
    175 H82         1.1450    1.1980   -3.7690 ho        1 MOL      0.422787
    176 H83         1.8870    2.4950   -3.5450 ho        1 MOL      0.422787
@<TRIPOS>BOND
     1    1    2 1   
     2    1    4 1   
     3    1    5 1   
     4    1    6 1   
     5    2    3 2   
     6    2    7 1   
     7    7    8 1   
     8    7   15 1   
     9    8    9 1   
    10    8   11 1   
    11    8   16 1   
    12    9   10 2   
    13    9   19 1   
    14   11   12 1   
    15   11   17 1   
    16   11   18 1   
    17   12   13 1   
    18   12   14 1   
    19   19   20 1   
    20   19   28 1   
    21   20   21 1   
    22   20   23 1   
    23   20   29 1   
    24   21   22 2   
    25   21   41 1   
    26   23   24 1   
    27   23   30 1   
    28   23   31 1   
    29   24   25 1   
    30   24   32 1   
    31   24   33 1   
    32   25   26 1   
    33   25   34 1   
    34   25   35 1   
    35   26   27 1   
    36   26   36 1   
    37   26   37 1   
    38   27   38 1   
    39   27   39 1   
    40   27   40 1   
    41   41   42 1   
    42   41   49 1   
    43   42   43 1   
    44   42   45 1   
    45   42   50 1   
    46   43   44 2   
    47   43   53 1   
    48   45   46 1   
    49   45   51 1   
    50   45   52 1   
    51   46   47 1   
    52   46   48 1   
    53   53   54 1   
    54   53   57 1   
    55   54   55 1   
    56   54   58 1   
    57   54   59 1   
    58   55   56 2   
    59   55   60 1   
    60   60   61 1   
    61   60   68 1   
    62   61   62 1   
    63   61   64 1   
    64   61   69 1   
    65   62   63 2   
    66   62   74 1   
    67   64   65 1   
    68   64   70 1   
    69   64   71 1   
    70   65   66 1   
    71   65   67 2   
    72   66   72 1   
    73   66   73 1   
    74   74   75 1   
    75   74   78 1   
    76   75   76 1   
    77   75   79 1   
    78   75   80 1   
    79   76   77 2   
    80   76   81 1   
    81   81   82 1   
    82   81   93 1   
    83   82   83 1   
    84   82   85 1   
    85   82   94 1   
    86   83   84 2   
    87   83  102 1   
    88   85   86 1   
    89   85   95 1   
    90   85   96 1   
    91   86   87 ar  
    92   86   88 ar  
    93   87   89 ar  
    94   87   97 1   
    95   88   90 ar  
    96   88   98 1   
    97   89   91 ar  
    98   89   99 1   
    99   90   91 ar  
   100   90  100 1   
   101   91   92 1   
   102   92  101 1   
   103  102  103 1   
   104  102  110 1   
   105  103  104 1   
   106  103  106 1   
   107  103  111 1   
   108  104  105 2   
   109  104  121 1   
   110  106  107 1   
   111  106  108 1   
   112  106  112 1   
   113  107  109 1   
   114  107  113 1   
   115  107  114 1   
   116  108  115 1   
   117  108  116 1   
   118  108  117 1   
   119  109  118 1   
   120  109  119 1   
   121  109  120 1   
   122  121  122 1   
   123  121  127 1   
   124  122  123 1   
   125  122  125 1   
   126  122  128 1   
   127  123  124 2   
   128  123  132 1   
   129  125  126 1   
   130  125  129 1   
   131  125  130 1   
   132  126  131 1   
   133  132  133 1   
   134  132  137 1   
   135  133  134 1   
   136  133  136 1   
   137  133  138 1   
   138  134  135 2   
   139  134  142 1   
   140  136  139 1   
   141  136  140 1   
   142  136  141 1   
   143  142  143 1   
   144  142  147 1   
   145  143  144 1   
   146  143  146 1   
   147  143  148 1   
   148  144  145 2   
   149  144  152 1   
   150  146  149 1   
   151  146  150 1   
   152  146  151 1   
   153  152  153 1   
   154  152  161 1   
   155  153  154 1   
   156  153  156 1   
   157  153  162 1   
   158  154  155 2   
   159  154  167 1   
   160  156  157 1   
   161  156  163 1   
   162  156  164 1   
   163  157  158 1   
   164  157  165 1   
   165  157  166 1   
   166  158  159 1   
   167  158  160 1   
   168  167  168 1   
   169  167  172 1   
   170  168  169 1   
   171  168  170 1   
   172  168  171 1   
   173  174  175 1   
   174  174  176 1   
@<TRIPOS>SUBSTRUCTURE
     1 MOL         1 TEMP              0 ****  ****    0 ROOT
