@<TRIPOS>MOLECULE
MOL
  189   185     1     0     0
SMALL
resp


@<TRIPOS>ATOM
      1 C1         -0.1670   -3.3660    6.1820 c3        1 MOL     -0.435011
      2 C2          0.6510   -3.0630    4.8630 c         1 MOL      0.686458
      3 O1          1.0490   -1.9070    4.6260 o         1 MOL     -0.600529
      4 H1         -0.3050   -4.4420    6.2850 hc        1 MOL      0.115063
      5 H2          0.3800   -2.9860    7.0440 hc        1 MOL      0.115063
      6 H3         -1.1410   -2.8800    6.1250 hc        1 MOL      0.115063
      7 N1          0.8160   -4.1130    4.0130 n         1 MOL     -0.566072
      8 C3          1.4740   -3.9700    2.7070 c3        1 MOL      0.295365
      9 C4          0.7940   -4.8790    1.6430 c         1 MOL      0.475540
     10 O2          0.5980   -6.0430    1.9850 o         1 MOL     -0.581440
     11 C5          2.9570   -4.3130    2.8430 c3        1 MOL     -0.317110
     12 C6          3.8440   -3.6900    1.7710 c         1 MOL      0.743446
     13 O3          5.1090   -3.8500    1.7600 o         1 MOL     -0.710400
     14 O4          3.3660   -2.9540    0.8310 o         1 MOL     -0.710400
     15 H4          0.4740   -5.0330    4.2220 hn        1 MOL      0.300982
     16 H5          1.2900   -2.9470    2.3770 h1        1 MOL     -0.032062
     17 H6          3.0970   -5.3790    3.0150 hc        1 MOL      0.075666
     18 H7          3.2650   -3.8100    3.7640 hc        1 MOL      0.075666
     19 N2          0.6230   -4.4150    0.3700 n         1 MOL     -0.154638
     20 C7          0.3270   -5.3060   -0.8630 c3        1 MOL     -0.351113
     21 C8          1.3220   -5.1570   -1.9810 c         1 MOL      0.671189
     22 O5          1.3250   -5.8790   -2.9910 o         1 MOL     -0.592306
     23 C9         -1.0870   -5.1510   -1.4000 c3        1 MOL      0.217837
     24 C10        -1.3420   -3.7730   -2.1380 c3        1 MOL     -0.173363
     25 C11        -2.2220   -5.3180   -0.3270 c3        1 MOL     -0.198895
     26 C12        -2.7920   -3.4550   -2.5690 c3        1 MOL     -0.165918
     27 H8          0.7970   -3.4240    0.2670 hn        1 MOL      0.192938
     28 H9          0.4740   -6.3260   -0.5130 h1        1 MOL      0.147472
     29 H10        -1.1970   -5.8680   -2.2140 hc        1 MOL     -0.001670
     30 H11        -0.6900   -3.8000   -3.0120 hc        1 MOL      0.077786
     31 H12        -1.0340   -3.0070   -1.4370 hc        1 MOL      0.077786
     32 H13        -3.1180   -5.5450   -0.9010 hc        1 MOL      0.036789
     33 H14        -2.0770   -6.2020    0.3020 hc        1 MOL      0.036789
     34 H15        -2.4080   -4.3950    0.2360 hc        1 MOL      0.036789
     35 H16        -2.7850   -2.4590   -2.9920 hc        1 MOL      0.080768
     36 H17        -3.1290   -4.2260   -3.2700 hc        1 MOL      0.080768
     37 H18        -3.5490   -3.4600   -1.7880 hc        1 MOL      0.080768
     38 N3          2.2920   -4.2180   -1.8600 n         1 MOL     -0.586738
     39 C13         3.1570   -3.8190   -2.9720 c3        1 MOL      0.172766
     40 C14         4.6080   -3.5800   -2.6680 c         1 MOL      0.369875
     41 O6          5.2760   -3.4830   -3.7110 o         1 MOL     -0.578411
     42 C15         2.6090   -2.6330   -3.8010 c3        1 MOL     -0.318032
     43 C16         2.2210   -1.4840   -2.8710 c         1 MOL      0.809596
     44 O7          2.6440   -1.3250   -1.6960 o         1 MOL     -0.715439
     45 O8          1.3240   -0.7230   -3.3250 o         1 MOL     -0.715439
     46 H19         2.2490   -3.5940   -1.0640 hn        1 MOL      0.304150
     47 H20         3.2860   -4.6400   -3.6860 h1        1 MOL      0.084320
     48 H21         1.6890   -2.9230   -4.3050 hc        1 MOL      0.089633
     49 H22         3.3690   -2.2690   -4.4840 hc        1 MOL      0.089633
     50 N4          5.1220   -3.4400   -1.4870 n         1 MOL     -0.115130
     51 C17         6.6010   -3.2310   -1.3160 c3        1 MOL     -0.288642
     52 C18         7.0550   -1.7890   -1.7920 c         1 MOL      0.499250
     53 O9          8.2490   -1.5260   -1.7420 o         1 MOL     -0.580235
     54 H23         4.5670   -3.6020   -0.6590 hn        1 MOL      0.193318
     55 H24         7.1400   -3.9760   -1.8950 h1        1 MOL      0.133105
     56 H25         6.7130   -3.2260   -0.2260 h1        1 MOL      0.133105
     57 N5          6.1480   -0.8030   -1.9200 n         1 MOL     -0.075004
     58 C19         6.5190    0.5490   -2.4180 c3        1 MOL     -0.132580
     59 C20         7.1500    1.5440   -1.4390 c         1 MOL      0.530781
     60 O10         8.0040    2.3030   -1.8230 o         1 MOL     -0.566025
     61 C21         5.1680    1.1780   -3.0940 c3        1 MOL     -0.175790
     62 C22         4.0330    1.5580   -2.1050 c         1 MOL      0.672258
     63 O11         4.0970    1.1690   -0.9160 o         1 MOL     -0.659801
     64 O12         2.9900    2.0300   -2.6090 o         1 MOL     -0.659801
     65 H26         5.2010   -1.1290   -1.8820 hn        1 MOL      0.079814
     66 H27         7.1190    0.3520   -3.3130 h1        1 MOL      0.097941
     67 H28         4.7250    0.4330   -3.7440 hc        1 MOL      0.071463
     68 H29         5.3830    2.0340   -3.7270 hc        1 MOL      0.071463
     69 N6          6.8700    1.3730   -0.1360 n         1 MOL     -0.267925
     70 C23         7.2640    2.2550    0.9280 c3        1 MOL      0.050910
     71 C24         6.2480    3.3540    1.2160 c         1 MOL      0.363640
     72 O13         6.7470    4.4090    1.5830 o         1 MOL     -0.577060
     73 H30         6.1490    0.6870    0.0580 hn        1 MOL      0.117906
     74 H31         8.2310    2.6980    0.7260 h1        1 MOL      0.049950
     75 H32         7.5230    1.6680    1.8070 h1        1 MOL      0.049950
     76 N7          4.9530    3.2110    0.8210 n         1 MOL     -0.109965
     77 C25         3.8690    4.1790    0.9700 c3        1 MOL     -0.034151
     78 C26         2.7160    3.4420    1.6770 c         1 MOL      0.516531
     79 O14         2.8910    2.2070    1.8800 o         1 MOL     -0.658825
     80 C27         3.5230    4.9760   -0.2830 c3        1 MOL     -0.016812
     81 C28         4.7460    5.7000   -0.8670 c3        1 MOL     -0.152055
     82 C29         4.2920    6.8120   -1.8170 c         1 MOL      0.688819
     83 N8          5.2570    7.5230   -2.3920 n         1 MOL     -0.815554
     84 O15         3.1320    7.2290   -1.9400 o         1 MOL     -0.569156
     85 H33         4.8330    2.3530    0.2950 hn        1 MOL      0.198775
     86 H34         4.2810    4.9090    1.6640 h1        1 MOL      0.055497
     87 H35         2.7160    5.6600   -0.0380 hc        1 MOL      0.025209
     88 H36         3.1690    4.3630   -1.1180 hc        1 MOL      0.025209
     89 H37         5.2600    4.8540   -1.3300 hc        1 MOL      0.066363
     90 H38         5.3160    6.2280   -0.1070 hc        1 MOL      0.066363
     91 H39         6.2530    7.3900   -2.2990 hn        1 MOL      0.343618
     92 H40         4.9790    8.4200   -2.7610 hn        1 MOL      0.343618
     93 N9          1.5480    4.0590    1.8990 n         1 MOL     -0.422226
     94 C30         0.2340    3.4750    2.3370 c3        1 MOL      0.033597
     95 C31        -0.8440    3.7250    1.3150 c         1 MOL      0.415694
     96 O16        -1.1140    4.8660    0.9690 o         1 MOL     -0.573797
     97 C32        -0.1230    3.9630    3.7820 c3        1 MOL      0.172015
     98 C33        -1.5360    3.5750    4.2770 c3        1 MOL     -0.183018
     99 C34         0.9370    3.4820    4.7690 c3        1 MOL     -0.183018
    100 H41         1.5700    5.0560    1.8470 hn        1 MOL      0.264920
    101 H42         0.4210    2.3990    2.3620 h1        1 MOL      0.149899
    102 H43        -0.1860    5.0430    3.8720 hc        1 MOL     -0.026270
    103 H44        -1.6560    3.6850    5.3550 hc        1 MOL      0.036413
    104 H45        -2.3410    4.1180    3.7630 hc        1 MOL      0.036413
    105 H46        -1.7340    2.5380    3.9790 hc        1 MOL      0.036413
    106 H47         1.7480    4.1970    4.9150 hc        1 MOL      0.036413
    107 H48         0.5550    3.2790    5.7770 hc        1 MOL      0.036413
    108 H49         1.3080    2.5100    4.4550 hc        1 MOL      0.036413
    109 N10        -1.5140    2.7180    0.7550 n         1 MOL     -0.138132
    110 C35        -2.5460    2.6940   -0.2110 c3        1 MOL      0.316018
    111 C36        -3.9740    2.5180    0.4700 c         1 MOL      0.091909
    112 O17        -4.0030    2.0720    1.5950 o         1 MOL     -0.276710
    113 C37        -2.1340    1.6030   -1.1820 c3        1 MOL     -0.455333
    114 C38        -3.1620    1.3370   -2.2160 c         1 MOL      0.931709
    115 N11        -3.2700    2.1770   -3.1870 n         1 MOL     -0.826777
    116 O18        -3.9460    0.3850   -2.0800 o         1 MOL     -0.655134
    117 H50        -1.1800    1.7870    0.9610 hn        1 MOL      0.154586
    118 H51        -2.5300    3.6590   -0.7160 h1        1 MOL     -0.021534
    119 H52        -1.7280    0.6940   -0.7200 hc        1 MOL      0.108842
    120 H53        -1.2760    2.0200   -1.7010 hc        1 MOL      0.108842
    121 H54        -2.9450    3.1280   -3.0330 hn        1 MOL      0.364010
    122 H55        -3.8510    1.9520   -3.9770 hn        1 MOL      0.364010
    123 N12        -5.0690    2.8090   -0.2320 n         1 MOL     -0.177100
    124 C39        -6.4990    2.6770    0.1790 c3        1 MOL      0.184276
    125 C40        -6.7570    1.2890    0.7320 c         1 MOL      0.367713
    126 O19        -7.4070    1.1590    1.8100 o         1 MOL     -0.561769
    127 C41        -7.4380    3.2190   -0.9110 c3        1 MOL     -0.216756
    128 C42        -7.2780    2.8300   -2.3350 ca        1 MOL     -0.011745
    129 C43        -6.7350    3.7050   -3.2300 ca        1 MOL     -0.042555
    130 C44        -7.5900    1.4810   -2.7570 ca        1 MOL     -0.042555
    131 C45        -6.6360    3.3260   -4.5870 ca        1 MOL     -0.434955
    132 C46        -7.4460    1.1340   -4.1330 ca        1 MOL     -0.434955
    133 C47        -6.9680    2.0590   -5.0550 ca        1 MOL      0.574634
    134 O20        -6.9930    1.7550   -6.3740 oh        1 MOL     -0.616561
    135 H56        -4.8850    3.2720   -1.1080 hn        1 MOL      0.145168
    136 H57        -6.7310    3.2720    1.0650 h1        1 MOL      0.030778
    137 H58        -7.3820    4.3090   -0.8780 hc        1 MOL      0.068905
    138 H59        -8.4160    2.8470   -0.6480 hc        1 MOL      0.068905
    139 H60        -6.4490    4.7070   -2.9420 ha        1 MOL      0.105212
    140 H61        -7.8860    0.7080   -2.0610 ha        1 MOL      0.105212
    141 H62        -6.3590    4.0680   -5.3240 ha        1 MOL      0.166344
    142 H63        -7.7700    0.1360   -4.4010 ha        1 MOL      0.166344
    143 H64        -7.3730    0.8870   -6.5230 ho        1 MOL      0.440668
    144 N13        -6.2460    0.2500    0.0490 n         1 MOL     -0.081451
    145 C48        -6.3670   -1.1650    0.4860 c3        1 MOL     -0.105426
    146 C49        -5.5800   -1.4580    1.8360 c         1 MOL      0.477030
    147 O21        -5.7860   -2.4650    2.5280 o         1 MOL     -0.540962
    148 C50        -5.8040   -2.0580   -0.6240 c3        1 MOL     -0.084428
    149 C51        -6.6720   -2.0370   -1.8960 c3        1 MOL     -0.406078
    150 C52        -6.3350   -3.2710   -2.7780 c         1 MOL      0.727953
    151 O22        -6.4900   -4.5020   -2.3740 o         1 MOL     -0.735651
    152 O23        -6.0130   -3.0670   -3.9510 o         1 MOL     -0.735651
    153 H65        -5.6380    0.4280   -0.7320 hn        1 MOL      0.138324
    154 H66        -7.4180   -1.3450    0.7070 h1        1 MOL      0.085970
    155 H67        -5.6410   -3.0700   -0.2600 hc        1 MOL      0.099808
    156 H68        -4.7990   -1.7220   -0.8830 hc        1 MOL      0.099808
    157 H69        -6.6750   -1.1560   -2.5430 hc        1 MOL      0.117594
    158 H70        -7.7370   -2.1010   -1.6650 hc        1 MOL      0.117594
    159 N14        -4.6200   -0.6050    2.2220 n         1 MOL     -0.308312
    160 C53        -3.7520   -0.8740    3.3690 c3        1 MOL      0.012555
    161 C54        -4.2240   -0.0300    4.6110 c         1 MOL      0.419009
    162 O24        -4.1820   -0.5180    5.7130 o         1 MOL     -0.544020
    163 C55        -2.2920   -0.5210    3.1160 c3        1 MOL      0.014254
    164 C56        -1.6630   -1.3260    1.9300 c3        1 MOL      0.180079
    165 C57        -0.3450   -0.8420    1.3470 c         1 MOL      0.738810
    166 O25         0.4190   -1.7050    0.7890 o         1 MOL     -0.773041
    167 O26         0.0160    0.3490    1.4410 o         1 MOL     -0.773041
    168 H71        -4.4030    0.1020    1.5310 hn        1 MOL      0.179866
    169 H72        -3.6490   -1.9310    3.6010 h1        1 MOL      0.078479
    170 H73        -1.7500   -0.6000    4.0550 hc        1 MOL     -0.001152
    171 H74        -2.2650    0.5100    2.7750 hc        1 MOL     -0.001152
    172 H75        -2.3660   -1.4820    1.1120 hc        1 MOL     -0.042146
    173 H76        -1.3880   -2.3280    2.2440 hc        1 MOL     -0.042146
    174 N15        -4.7560    1.2050    4.3380 n         1 MOL     -0.094614
    175 C58        -5.2510    2.0260    5.4810 c3        1 MOL     -0.168388
    176 H77        -4.8130    3.0230    5.4270 h1        1 MOL      0.067945
    177 H78        -6.3370    2.1040    5.4300 h1        1 MOL      0.067945
    178 H79        -4.9630    1.5530    6.4200 h1        1 MOL      0.067945
    179 H80        -4.6970    1.4590    3.3660 hn        1 MOL      0.093003
    180 Ca1         2.5230   -0.2900    0.5690 Ca        1 MOL      1.778496
    181 O27         2.7630   -0.8180    3.0130 oh        1 MOL     -0.860987
    182 O28         1.0210    1.0000   -1.3910 oh        1 MOL     -0.860987
    183 H81         2.0750   -1.0410    3.6450 ho        1 MOL      0.416508
    184 H82         1.6730    1.6100   -1.7460 ho        1 MOL      0.416508
    185 H83         3.4670   -0.4560    3.5400 ho        1 MOL      0.416508
    186 H84         0.8610    0.3750   -2.1010 ho        1 MOL      0.416508
    187 O29         5.1750   -0.8040    1.5820 oh        1 MOL     -0.860987
    188 H85         5.9480   -0.8910    2.1450 ho        1 MOL      0.416508
    189 H86         4.9350   -1.7080    1.3760 ho        1 MOL      0.416508
@<TRIPOS>BOND
     1    1    2 1   
     2    1    4 1   
     3    1    5 1   
     4    1    6 1   
     5    2    3 2   
     6    2    7 1   
     7    7    8 1   
     8    7   15 1   
     9    8    9 1   
    10    8   11 1   
    11    8   16 1   
    12    9   10 2   
    13    9   19 1   
    14   11   12 1   
    15   11   17 1   
    16   11   18 1   
    17   12   13 1   
    18   12   14 1   
    19   19   20 1   
    20   19   27 1   
    21   20   21 1   
    22   20   23 1   
    23   20   28 1   
    24   21   22 2   
    25   21   38 1   
    26   23   24 1   
    27   23   25 1   
    28   23   29 1   
    29   24   26 1   
    30   24   30 1   
    31   24   31 1   
    32   25   32 1   
    33   25   33 1   
    34   25   34 1   
    35   26   35 1   
    36   26   36 1   
    37   26   37 1   
    38   38   39 1   
    39   38   46 1   
    40   39   40 1   
    41   39   42 1   
    42   39   47 1   
    43   40   41 2   
    44   40   50 1   
    45   42   43 1   
    46   42   48 1   
    47   42   49 1   
    48   43   44 1   
    49   43   45 1   
    50   50   51 1   
    51   50   54 1   
    52   51   52 1   
    53   51   55 1   
    54   51   56 1   
    55   52   53 2   
    56   52   57 1   
    57   57   58 1   
    58   57   65 1   
    59   58   59 1   
    60   58   61 1   
    61   58   66 1   
    62   59   60 2   
    63   59   69 1   
    64   61   62 1   
    65   61   67 1   
    66   61   68 1   
    67   62   63 1   
    68   62   64 1   
    69   69   70 1   
    70   69   73 1   
    71   70   71 1   
    72   70   74 1   
    73   70   75 1   
    74   71   72 2   
    75   71   76 1   
    76   76   77 1   
    77   76   85 1   
    78   77   78 1   
    79   77   80 1   
    80   77   86 1   
    81   78   79 2   
    82   78   93 1   
    83   80   81 1   
    84   80   87 1   
    85   80   88 1   
    86   81   82 1   
    87   81   89 1   
    88   81   90 1   
    89   82   83 1   
    90   82   84 2   
    91   83   91 1   
    92   83   92 1   
    93   93   94 1   
    94   93  100 1   
    95   94   95 1   
    96   94   97 1   
    97   94  101 1   
    98   95   96 2   
    99   95  109 1   
   100   97   98 1   
   101   97   99 1   
   102   97  102 1   
   103   98  103 1   
   104   98  104 1   
   105   98  105 1   
   106   99  106 1   
   107   99  107 1   
   108   99  108 1   
   109  109  110 1   
   110  109  117 1   
   111  110  111 1   
   112  110  113 1   
   113  110  118 1   
   114  111  112 2   
   115  111  123 1   
   116  113  114 1   
   117  113  119 1   
   118  113  120 1   
   119  114  115 1   
   120  114  116 2   
   121  115  121 1   
   122  115  122 1   
   123  123  124 1   
   124  123  135 1   
   125  124  125 1   
   126  124  127 1   
   127  124  136 1   
   128  125  126 2   
   129  125  144 1   
   130  127  128 1   
   131  127  137 1   
   132  127  138 1   
   133  128  129 ar  
   134  128  130 ar  
   135  129  131 ar  
   136  129  139 1   
   137  130  132 ar  
   138  130  140 1   
   139  131  133 ar  
   140  131  141 1   
   141  132  133 ar  
   142  132  142 1   
   143  133  134 1   
   144  134  143 1   
   145  144  145 1   
   146  144  153 1   
   147  145  146 1   
   148  145  148 1   
   149  145  154 1   
   150  146  147 2   
   151  146  159 1   
   152  148  149 1   
   153  148  155 1   
   154  148  156 1   
   155  149  150 1   
   156  149  157 1   
   157  149  158 1   
   158  150  151 1   
   159  150  152 1   
   160  159  160 1   
   161  159  168 1   
   162  160  161 1   
   163  160  163 1   
   164  160  169 1   
   165  161  162 2   
   166  161  174 1   
   167  163  164 1   
   168  163  170 1   
   169  163  171 1   
   170  164  165 1   
   171  164  172 1   
   172  164  173 1   
   173  165  166 1   
   174  165  167 1   
   175  174  175 1   
   176  174  179 1   
   177  175  176 1   
   178  175  177 1   
   179  175  178 1   
   180  181  183 1   
   181  181  185 1   
   182  182  184 1   
   183  182  186 1   
   184  187  188 1   
   185  187  189 1   
@<TRIPOS>SUBSTRUCTURE
     1 MOL         1 TEMP              0 ****  ****    0 ROOT
