@<TRIPOS>MOLECULE
MOL
  179   176     1     0     0
SMALL
resp


@<TRIPOS>ATOM
      1 C1          0.7550    5.0040    5.5690 c3        1 MOL     -0.374504
      2 C2          0.7420    4.2890    4.2000 c         1 MOL      0.706700
      3 O1          1.6470    4.3380    3.3820 o         1 MOL     -0.604220
      4 H1          0.5200    4.2860    6.3560 hc        1 MOL      0.101276
      5 H2          1.7430    5.4280    5.7480 hc        1 MOL      0.101276
      6 H3          0.0110    5.8000    5.5700 hc        1 MOL      0.101276
      7 N1         -0.3780    3.7230    3.7790 n         1 MOL     -0.541292
      8 C3         -0.5300    3.3170    2.3730 c3        1 MOL     -0.016776
      9 C4         -1.0640    4.4060    1.4230 c         1 MOL      0.550526
     10 O2         -2.2540    4.7910    1.4680 o         1 MOL     -0.496359
     11 C5         -1.4810    2.1010    2.3350 c3        1 MOL      0.014742
     12 C6         -1.6290    1.4010    1.0050 c         1 MOL      0.846185
     13 O3         -0.6020    1.3180    0.2680 o         1 MOL     -0.848370
     14 O4         -2.6490    0.6670    0.7440 o         1 MOL     -0.848370
     15 H4         -1.2530    4.0470    4.1910 hn        1 MOL      0.301990
     16 H5          0.4210    2.8990    2.0460 h1        1 MOL      0.142624
     17 H6         -2.4860    2.3570    2.6740 hc        1 MOL     -0.006666
     18 H7         -1.0910    1.3960    3.0720 hc        1 MOL     -0.006666
     19 N2         -0.2240    4.9080    0.4770 n         1 MOL     -0.424583
     20 C7         -0.4120    6.0510   -0.3750 c3        1 MOL     -0.019482
     21 C8         -1.6410    6.0190   -1.2250 c         1 MOL      0.628891
     22 O5         -2.0730    7.1150   -1.5330 o         1 MOL     -0.586135
     23 C9          0.9410    6.4740   -1.0520 c3        1 MOL     -0.421511
     24 C10         1.8630    7.0620    0.0390 c3        1 MOL      0.309696
     25 C11         2.9560    7.9910   -0.4990 c3        1 MOL      0.015487
     26 C12         3.8560    8.5300    0.6790 c3        1 MOL     -0.161129
     27 N3          3.1520    9.5210    1.5300 n4        1 MOL     -0.266530
     28 H8          0.6620    4.4660    0.2680 hn        1 MOL      0.291662
     29 H9         -0.6990    6.8750    0.2920 h1        1 MOL      0.070575
     30 H10         0.7430    7.1620   -1.8630 hc        1 MOL      0.141810
     31 H11         1.3630    5.6200   -1.5710 hc        1 MOL      0.141810
     32 H12         2.2790    6.2960    0.6950 hc        1 MOL     -0.041925
     33 H13         1.3060    7.7420    0.6790 hc        1 MOL     -0.041925
     34 H14         2.4710    8.8510   -0.9800 hc        1 MOL      0.031254
     35 H15         3.5490    7.4840   -1.2540 hc        1 MOL      0.031254
     36 H16         4.7940    8.9300    0.2990 hx        1 MOL      0.143935
     37 H17         4.0900    7.6550    1.2950 hx        1 MOL      0.143935
     38 H18         2.9010   10.4080    1.1130 hn        1 MOL      0.308015
     39 H19         2.3660    9.1350    2.0370 hn        1 MOL      0.308015
     40 H20         3.6630    9.8740    2.3190 hn        1 MOL      0.308015
     41 N4         -2.0840    4.8300   -1.6020 n         1 MOL     -0.406569
     42 C13        -3.2390    4.7020   -2.4910 c3        1 MOL      0.143924
     43 C14        -4.4860    4.3840   -1.6540 c         1 MOL      0.352705
     44 O6         -5.6030    4.6310   -2.0870 o         1 MOL     -0.526942
     45 C15        -3.0380    3.6940   -3.5900 c3        1 MOL     -0.204040
     46 C16        -2.6440    2.3240   -3.1330 c         1 MOL      0.924105
     47 O7         -3.2970    1.8420   -2.2450 o         1 MOL     -0.759341
     48 O8         -1.6800    1.7440   -3.5900 o         1 MOL     -0.759341
     49 H21        -1.6000    4.0070   -1.2830 hn        1 MOL      0.218536
     50 H22        -3.4400    5.6280   -3.0170 h1        1 MOL      0.088719
     51 H23        -2.2110    4.0720   -4.1960 hc        1 MOL      0.034687
     52 H24        -3.9270    3.6760   -4.2200 hc        1 MOL      0.034687
     53 N5         -4.2660    3.8750   -0.4150 n         1 MOL     -0.007483
     54 C17        -5.3300    3.4920    0.6120 c3        1 MOL     -0.111315
     55 C18        -6.1880    2.2510    0.2190 c         1 MOL      0.495467
     56 O9         -7.2790    2.1270    0.7120 o         1 MOL     -0.559057
     57 H25        -3.3250    3.9460   -0.0510 hn        1 MOL     -0.005154
     58 H26        -5.9950    4.3020    0.9000 h1        1 MOL      0.078630
     59 H27        -4.7940    3.2090    1.5170 h1        1 MOL      0.078630
     60 N6         -5.6530    1.3850   -0.6280 n         1 MOL     -0.191248
     61 C19        -6.3340    0.1460   -1.0410 c3        1 MOL      0.139868
     62 C20        -6.3220   -0.9220    0.1080 c         1 MOL      0.247963
     63 O10        -6.9590   -1.9490    0.0270 o         1 MOL     -0.454005
     64 C21        -5.7280   -0.2880   -2.3730 c3        1 MOL     -0.402037
     65 C22        -4.9070   -1.5750   -2.3790 c         1 MOL      0.594152
     66 N7         -5.3160   -2.5750   -3.1640 n         1 MOL     -0.559996
     67 O11        -4.0020   -1.7990   -1.5600 o         1 MOL     -0.571457
     68 H28        -4.7260    1.5390   -0.9970 hn        1 MOL      0.084290
     69 H29        -7.3820    0.4480   -1.0490 h1        1 MOL      0.090053
     70 H30        -5.1270    0.4480   -2.8970 hc        1 MOL      0.140497
     71 H31        -6.6030   -0.5080   -2.9890 hc        1 MOL      0.140497
     72 H32        -6.1090   -2.4200   -3.7740 hn        1 MOL      0.301649
     73 H33        -4.6160   -3.2380   -3.4300 hn        1 MOL      0.301649
     74 N8         -5.5130   -0.7700    1.1760 n         1 MOL     -0.004380
     75 C23        -5.5480   -1.6700    2.3070 c3        1 MOL     -0.507615
     76 C24        -4.4570   -2.7550    2.2660 c         1 MOL      0.793775
     77 O12        -4.2540   -3.4480    3.2440 o         1 MOL     -0.643916
     78 H34        -5.0040    0.1000    1.2150 hn        1 MOL      0.191852
     79 H35        -6.4420   -2.2900    2.3920 h1        1 MOL      0.185438
     80 H36        -5.3920   -1.0830    3.2120 h1        1 MOL      0.185438
     81 N9         -3.6210   -2.9140    1.2580 n         1 MOL     -0.531467
     82 C25        -2.4800   -3.8060    1.1870 c3        1 MOL      0.266556
     83 C26        -1.1740   -3.0320    0.8530 c         1 MOL      0.306422
     84 O13        -1.1330   -2.2040   -0.0540 o         1 MOL     -0.433970
     85 C27        -2.7740   -4.8960    0.1260 c3        1 MOL     -0.315511
     86 C28        -4.0750   -5.6410    0.4950 ca        1 MOL      0.205386
     87 C29        -5.2840   -5.2300   -0.1090 ca        1 MOL     -0.233426
     88 C30        -4.0170   -6.8500    1.2430 ca        1 MOL     -0.233426
     89 C31        -6.4640   -5.9180    0.2290 ca        1 MOL     -0.225974
     90 C32        -5.1960   -7.5230    1.6490 ca        1 MOL     -0.225974
     91 C33        -6.4790   -6.9910    1.1550 ca        1 MOL      0.301294
     92 O14        -7.7010   -7.4570    1.5510 oh        1 MOL     -0.490969
     93 H37        -3.7630   -2.3750    0.4260 hn        1 MOL      0.345187
     94 H38        -2.3040   -4.3930    2.0890 h1        1 MOL      0.055719
     95 H39        -1.8780   -5.5220    0.1460 hc        1 MOL      0.080440
     96 H40        -2.9440   -4.3860   -0.8240 hc        1 MOL      0.080440
     97 H41        -5.2590   -4.4050   -0.8090 ha        1 MOL      0.143200
     98 H42        -3.0300   -7.1720    1.5690 ha        1 MOL      0.143200
     99 H43        -7.3600   -5.6370   -0.3130 ha        1 MOL      0.138165
    100 H44        -5.1400   -8.3900    2.2870 ha        1 MOL      0.138165
    101 H45        -7.7130   -8.2370    2.1230 ho        1 MOL      0.375779
    102 N10        -0.0970   -3.3630    1.5770 n         1 MOL     -0.357832
    103 C34         1.2160   -2.6460    1.5800 c3        1 MOL     -0.020058
    104 C35         2.3280   -3.6760    1.2150 c         1 MOL      0.569993
    105 O15         2.4520   -4.6410    1.9150 o         1 MOL     -0.540044
    106 C36         1.6070   -1.9540    2.9050 c3        1 MOL     -0.160878
    107 C37         0.7840   -0.6460    3.1430 c3        1 MOL      0.025324
    108 C38         3.1210   -1.5760    3.0050 c3        1 MOL      0.002077
    109 C39         1.1160    0.1130    4.4000 c3        1 MOL     -0.140798
    110 H46        -0.2650   -3.9500    2.3790 hn        1 MOL      0.278321
    111 H47         1.2660   -1.7770    0.9120 h1        1 MOL      0.054776
    112 H48         1.4050   -2.6970    3.6820 hc        1 MOL      0.071408
    113 H49        -0.2900   -0.8580    3.1290 hc        1 MOL      0.044785
    114 H50         0.9380    0.1680    2.4450 hc        1 MOL      0.044785
    115 H51         3.8380   -2.3320    2.7060 hc        1 MOL      0.007635
    116 H52         3.2910   -0.7690    2.3020 hc        1 MOL      0.007635
    117 H53         3.3620   -1.2330    4.0160 hc        1 MOL      0.007635
    118 H54         2.1240    0.5280    4.3050 hc        1 MOL      0.034596
    119 H55         0.4210    0.9540    4.4800 hc        1 MOL      0.034596
    120 H56         1.0980   -0.4420    5.3370 hc        1 MOL      0.034596
    121 N11         2.9000   -3.5310   -0.0010 n         1 MOL     -0.308261
    122 C40         3.9400   -4.3210   -0.5370 c3        1 MOL     -0.047475
    123 C41         5.3920   -3.7960   -0.0780 c         1 MOL      0.353610
    124 O16         5.4050   -2.7150    0.5370 o         1 MOL     -0.323166
    125 C42         3.8790   -4.2620   -2.0910 c3        1 MOL      0.123018
    126 O17         4.3100   -3.0350   -2.5740 oh        1 MOL     -0.521855
    127 H57         2.6260   -2.7370   -0.5630 hn        1 MOL      0.246121
    128 H58         3.7980   -5.3720   -0.2770 h1        1 MOL      0.055726
    129 H59         2.8520   -4.3900   -2.4200 h1        1 MOL      0.034051
    130 H60         4.4440   -5.1030   -2.5070 h1        1 MOL      0.034051
    131 H61         3.4990   -2.5380   -2.5310 ho        1 MOL      0.324235
    132 N12         6.4390   -4.5210   -0.3800 n         1 MOL     -0.345179
    133 C43         7.7550   -4.1730    0.1830 c3        1 MOL      0.041776
    134 C44         8.2620   -2.7800   -0.2890 c         1 MOL      0.490687
    135 O18         8.7920   -1.9860    0.4930 o         1 MOL     -0.508309
    136 C45         8.6890   -5.3650   -0.2760 c3        1 MOL     -0.271671
    137 H62         6.3850   -5.3320   -0.9710 hn        1 MOL      0.284912
    138 H63         7.7430   -4.2630    1.2600 h1        1 MOL      0.109296
    139 H64         8.2230   -6.2590    0.1340 hc        1 MOL      0.083857
    140 H65         8.8720   -5.4750   -1.3340 hc        1 MOL      0.083857
    141 H66         9.6210   -5.2280    0.2630 hc        1 MOL      0.083857
    142 N13         7.9500   -2.4310   -1.5810 n         1 MOL     -0.417053
    143 C46         8.1540   -1.1120   -2.2240 c3        1 MOL      0.099194
    144 C47         7.3720    0.0270   -1.5820 c         1 MOL      0.365459
    145 O19         7.9150    1.0280   -1.1290 o         1 MOL     -0.501265
    146 C48         7.9050   -1.2900   -3.7260 c3        1 MOL     -0.328660
    147 H67         7.4740   -3.1350   -2.1280 hn        1 MOL      0.279433
    148 H68         9.1820   -0.9340   -1.9130 h1        1 MOL      0.088760
    149 H69         6.8760   -1.5210   -3.9900 hc        1 MOL      0.097922
    150 H70         8.1640   -0.3280   -4.1850 hc        1 MOL      0.097922
    151 H71         8.5130   -2.1200   -4.0800 hc        1 MOL      0.097922
    152 N14         6.0720   -0.1630   -1.4640 n         1 MOL     -0.031884
    153 C49         5.1950    0.6920   -0.6900 c3        1 MOL     -0.238945
    154 C50         5.6590    0.9200    0.7650 c         1 MOL      0.433263
    155 O20         5.6550    2.1100    1.1970 o         1 MOL     -0.535509
    156 C51         3.7540    0.1210   -0.6530 c3        1 MOL     -0.004684
    157 C52         3.1500    0.0980   -2.0820 c3        1 MOL     -0.085296
    158 C53         1.7920   -0.5330   -2.0680 c         1 MOL      0.769717
    159 O21         1.6890   -1.8110   -2.0370 o         1 MOL     -0.743278
    160 O22         0.7390    0.1040   -2.0730 o         1 MOL     -0.743278
    161 H72         5.5820   -0.9140   -1.9310 hn        1 MOL      0.082010
    162 H73         5.1660    1.5810   -1.3210 h1        1 MOL      0.111435
    163 H74         3.1640    0.7230    0.0330 hc        1 MOL      0.081945
    164 H75         3.8190   -0.9090   -0.2990 hc        1 MOL      0.081945
    165 H76         3.7470   -0.3830   -2.8480 hc        1 MOL      0.025439
    166 H77         3.0450    1.0690   -2.5650 hc        1 MOL      0.025439
    167 N15         6.3150   -0.1160    1.4140 n         1 MOL      0.031915
    168 C54         6.8550    0.0950    2.7720 c3        1 MOL     -0.191392
    169 H78         6.5970   -0.7560    3.4010 h1        1 MOL      0.076238
    170 H79         7.9400    0.1920    2.7210 h1        1 MOL      0.076238
    171 H80         6.4280    1.0030    3.1970 h1        1 MOL      0.076238
    172 H81         6.1600   -1.0550    1.0760 hn        1 MOL      0.025813
    173 Ca1        -1.6970   -0.0880   -1.6540 Ca        1 MOL      1.780100
    174 O23        -2.7380   -0.7060   -4.1320 oh        1 MOL     -0.892913
    175 H82        -2.8230   -0.3920   -5.0400 ho        1 MOL      0.420993
    176 H83        -2.4630   -1.6220   -4.2290 ho        1 MOL      0.420993
    177 O24        -0.7650   -2.5500   -2.7700 oh        1 MOL     -0.892913
    178 H84         0.1050   -2.1770   -2.5890 ho        1 MOL      0.420993
    179 H85        -0.6190   -3.5000   -2.7880 ho        1 MOL      0.420993
@<TRIPOS>BOND
     1    1    2 1   
     2    1    4 1   
     3    1    5 1   
     4    1    6 1   
     5    2    3 2   
     6    2    7 1   
     7    7    8 1   
     8    7   15 1   
     9    8    9 1   
    10    8   11 1   
    11    8   16 1   
    12    9   10 2   
    13    9   19 1   
    14   11   12 1   
    15   11   17 1   
    16   11   18 1   
    17   12   13 1   
    18   12   14 1   
    19   19   20 1   
    20   19   28 1   
    21   20   21 1   
    22   20   23 1   
    23   20   29 1   
    24   21   22 2   
    25   21   41 1   
    26   23   24 1   
    27   23   30 1   
    28   23   31 1   
    29   24   25 1   
    30   24   32 1   
    31   24   33 1   
    32   25   26 1   
    33   25   34 1   
    34   25   35 1   
    35   26   27 1   
    36   26   36 1   
    37   26   37 1   
    38   27   38 1   
    39   27   39 1   
    40   27   40 1   
    41   41   42 1   
    42   41   49 1   
    43   42   43 1   
    44   42   45 1   
    45   42   50 1   
    46   43   44 2   
    47   43   53 1   
    48   45   46 1   
    49   45   51 1   
    50   45   52 1   
    51   46   47 1   
    52   46   48 1   
    53   53   54 1   
    54   53   57 1   
    55   54   55 1   
    56   54   58 1   
    57   54   59 1   
    58   55   56 2   
    59   55   60 1   
    60   60   61 1   
    61   60   68 1   
    62   61   62 1   
    63   61   64 1   
    64   61   69 1   
    65   62   63 2   
    66   62   74 1   
    67   64   65 1   
    68   64   70 1   
    69   64   71 1   
    70   65   66 1   
    71   65   67 2   
    72   66   72 1   
    73   66   73 1   
    74   74   75 1   
    75   74   78 1   
    76   75   76 1   
    77   75   79 1   
    78   75   80 1   
    79   76   77 2   
    80   76   81 1   
    81   81   82 1   
    82   81   93 1   
    83   82   83 1   
    84   82   85 1   
    85   82   94 1   
    86   83   84 2   
    87   83  102 1   
    88   85   86 1   
    89   85   95 1   
    90   85   96 1   
    91   86   87 ar  
    92   86   88 ar  
    93   87   89 ar  
    94   87   97 1   
    95   88   90 ar  
    96   88   98 1   
    97   89   91 ar  
    98   89   99 1   
    99   90   91 ar  
   100   90  100 1   
   101   91   92 1   
   102   92  101 1   
   103  102  103 1   
   104  102  110 1   
   105  103  104 1   
   106  103  106 1   
   107  103  111 1   
   108  104  105 2   
   109  104  121 1   
   110  106  107 1   
   111  106  108 1   
   112  106  112 1   
   113  107  109 1   
   114  107  113 1   
   115  107  114 1   
   116  108  115 1   
   117  108  116 1   
   118  108  117 1   
   119  109  118 1   
   120  109  119 1   
   121  109  120 1   
   122  121  122 1   
   123  121  127 1   
   124  122  123 1   
   125  122  125 1   
   126  122  128 1   
   127  123  124 2   
   128  123  132 1   
   129  125  126 1   
   130  125  129 1   
   131  125  130 1   
   132  126  131 1   
   133  132  133 1   
   134  132  137 1   
   135  133  134 1   
   136  133  136 1   
   137  133  138 1   
   138  134  135 2   
   139  134  142 1   
   140  136  139 1   
   141  136  140 1   
   142  136  141 1   
   143  142  143 1   
   144  142  147 1   
   145  143  144 1   
   146  143  146 1   
   147  143  148 1   
   148  144  145 2   
   149  144  152 1   
   150  146  149 1   
   151  146  150 1   
   152  146  151 1   
   153  152  153 1   
   154  152  161 1   
   155  153  154 1   
   156  153  156 1   
   157  153  162 1   
   158  154  155 2   
   159  154  167 1   
   160  156  157 1   
   161  156  163 1   
   162  156  164 1   
   163  157  158 1   
   164  157  165 1   
   165  157  166 1   
   166  158  159 1   
   167  158  160 1   
   168  167  168 1   
   169  167  172 1   
   170  168  169 1   
   171  168  170 1   
   172  168  171 1   
   173  174  175 1   
   174  174  176 1   
   175  177  178 1   
   176  177  179 1   
@<TRIPOS>SUBSTRUCTURE
     1 MOL         1 TEMP              0 ****  ****    0 ROOT
