@<TRIPOS>MOLECULE
MOL
  176   174     1     0     0
SMALL
resp


@<TRIPOS>ATOM
      1 C1          1.3480   -4.1010    6.8230 c3        1 MOL     -0.280921
      2 C2          1.0410   -3.6640    5.3600 c         1 MOL      0.753282
      3 O1         -0.0700   -3.9290    4.9370 o         1 MOL     -0.603449
      4 H1          2.2040   -4.7750    6.8290 hc        1 MOL      0.067827
      5 H2          1.5760   -3.2210    7.4260 hc        1 MOL      0.067827
      6 H3          0.4800   -4.6130    7.2400 hc        1 MOL      0.067827
      7 N1          1.8830   -3.0100    4.6250 n         1 MOL     -0.620946
      8 C3          1.8200   -2.8240    3.1850 c3        1 MOL      0.179234
      9 C4          1.7120   -4.0450    2.3880 c         1 MOL      0.546657
     10 O2          2.5170   -4.9110    2.6140 o         1 MOL     -0.561395
     11 C5          2.9880   -1.8960    2.8420 c3        1 MOL     -0.187047
     12 C6          2.9450   -1.4330    1.4490 c         1 MOL      0.945311
     13 O3          2.8520   -2.1860    0.5010 o         1 MOL     -0.894724
     14 O4          3.0100   -0.2100    1.1440 o         1 MOL     -0.894724
     15 H4          2.8360   -2.9560    4.9520 hn        1 MOL      0.293947
     16 H5          0.9080   -2.2390    3.0340 h1        1 MOL      0.046093
     17 H6          3.9430   -2.4150    2.9580 hc        1 MOL      0.053499
     18 H7          2.9750   -1.0850    3.5650 hc        1 MOL      0.053499
     19 N2          0.9330   -3.9930    1.3290 n         1 MOL     -0.401144
     20 C7          0.6340   -5.2050    0.4930 c3        1 MOL     -0.024708
     21 C8          1.6740   -5.6980   -0.4740 c         1 MOL      0.511980
     22 O5          1.5520   -6.8030   -0.9690 o         1 MOL     -0.582265
     23 C9         -0.6090   -4.8730   -0.3130 c3        1 MOL      0.098788
     24 C10        -1.5010   -6.1510   -0.6350 c3        1 MOL     -0.189288
     25 C11        -2.6000   -5.6560   -1.6210 c3        1 MOL      0.283413
     26 C12        -3.4950   -6.7750   -2.2150 c3        1 MOL     -0.132965
     27 N3         -2.7680   -7.7430   -3.0410 n4        1 MOL     -0.262923
     28 H8          0.4030   -3.1410    1.2030 hn        1 MOL      0.244480
     29 H9          0.3830   -6.0600    1.1360 h1        1 MOL      0.085186
     30 H10        -0.2410   -4.3080   -1.1670 hc        1 MOL      0.032163
     31 H11        -1.2450   -4.1740    0.2400 hc        1 MOL      0.032163
     32 H12        -1.9500   -6.5000    0.2930 hc        1 MOL      0.044177
     33 H13        -0.9140   -6.9270   -1.1140 hc        1 MOL      0.044177
     34 H14        -2.0730   -5.1190   -2.4120 hc        1 MOL     -0.047666
     35 H15        -3.2240   -4.9150   -1.1220 hc        1 MOL     -0.047666
     36 H16        -4.2250   -6.1860   -2.7740 hx        1 MOL      0.108818
     37 H17        -4.0380   -7.2910   -1.4100 hx        1 MOL      0.108818
     38 H18        -2.4350   -7.3680   -3.9130 hn        1 MOL      0.306702
     39 H19        -1.9900   -8.2520   -2.6340 hn        1 MOL      0.306702
     40 H20        -3.4720   -8.4200   -3.3060 hn        1 MOL      0.306702
     41 N4          2.6640   -4.8710   -0.7620 n         1 MOL     -0.347260
     42 C13         3.6710   -5.0200   -1.8630 c3        1 MOL      0.163920
     43 C14         5.0160   -4.5250   -1.3600 c         1 MOL      0.408204
     44 O6          5.9580   -5.2730   -1.5580 o         1 MOL     -0.542439
     45 C15         3.2210   -4.2170   -3.0710 c3        1 MOL     -0.311977
     46 C16         2.7360   -2.8040   -2.7200 c         1 MOL      0.683915
     47 O7          1.5220   -2.5770   -2.5740 o         1 MOL     -0.684058
     48 O8          3.5320   -1.8400   -2.5310 o         1 MOL     -0.684058
     49 H21         2.6910   -4.0240   -0.2040 hn        1 MOL      0.239148
     50 H22         3.7410   -6.0850   -2.0870 h1        1 MOL      0.075855
     51 H23         2.4650   -4.7840   -3.6140 hc        1 MOL      0.080672
     52 H24         4.1070   -4.1410   -3.7090 hc        1 MOL      0.080672
     53 N5          5.1400   -3.3600   -0.6610 n         1 MOL     -0.187006
     54 C17         6.3860   -2.8000   -0.1120 c3        1 MOL     -0.143905
     55 C18         6.6810   -1.2980   -0.3270 c         1 MOL      0.447371
     56 O9          7.6370   -0.8420    0.3120 o         1 MOL     -0.588818
     57 H25         4.2580   -2.8880   -0.5420 hn        1 MOL      0.233359
     58 H26         7.2480   -3.3210   -0.5280 h1        1 MOL      0.105740
     59 H27         6.3330   -2.8770    0.9800 h1        1 MOL      0.105740
     60 N6          5.9540   -0.5410   -1.0870 n         1 MOL      0.050077
     61 C19         6.3910    0.7630   -1.4920 c3        1 MOL     -0.257209
     62 C20         6.2940    1.8400   -0.3960 c         1 MOL      0.416466
     63 O10         6.6960    2.9160   -0.6810 o         1 MOL     -0.425190
     64 C21         5.7420    1.1980   -2.8400 c3        1 MOL      0.006285
     65 C22         4.2950    1.5880   -2.8000 c         1 MOL      0.755578
     66 N7          3.8650    2.3240   -3.7910 n         1 MOL     -0.815323
     67 O11         3.6510    1.2540   -1.8360 o         1 MOL     -0.795348
     68 H28         5.2670   -1.0960   -1.5650 hn        1 MOL      0.041973
     69 H29         7.4400    0.6770   -1.7630 h1        1 MOL      0.142288
     70 H30         5.8050    0.3950   -3.5720 hc        1 MOL      0.028971
     71 H31         6.2940    2.0270   -3.2710 hc        1 MOL      0.028971
     72 H32         4.4760    2.6560   -4.5180 hn        1 MOL      0.379033
     73 H33         2.8820    2.5760   -3.7700 hn        1 MOL      0.379033
     74 N8          5.7080    1.5180    0.7890 n         1 MOL     -0.182636
     75 C23         5.3980    2.4720    1.8640 c3        1 MOL     -0.400277
     76 C24         4.2460    3.3260    1.6480 c         1 MOL      0.498271
     77 O12         4.2800    4.4240    2.2890 o         1 MOL     -0.510798
     78 H34         5.4430    0.5530    0.9190 hn        1 MOL      0.251750
     79 H35         6.3110    3.0740    1.9870 h1        1 MOL      0.173273
     80 H36         5.1540    1.8980    2.7530 h1        1 MOL      0.173273
     81 N9          3.3880    3.0250    0.6610 n         1 MOL     -0.269945
     82 C25         2.1680    3.8420    0.5470 c3        1 MOL      0.225484
     83 C26         0.8470    2.9880    0.4400 c         1 MOL      0.363645
     84 O13         0.9320    1.9230   -0.2060 o         1 MOL     -0.580926
     85 C27         2.2960    4.7580   -0.6970 c3        1 MOL      0.128358
     86 C28         3.1820    5.9000   -0.5000 ca        1 MOL     -0.052094
     87 C29         4.5540    5.7920   -0.6300 ca        1 MOL     -0.113471
     88 C30         2.6010    7.1710   -0.2060 ca        1 MOL     -0.113471
     89 C31         5.4070    6.9580   -0.3620 ca        1 MOL     -0.333082
     90 C32         3.3620    8.3290   -0.0800 ca        1 MOL     -0.333082
     91 C33         4.7210    8.1810   -0.0350 ca        1 MOL      0.416653
     92 O14         5.4980    9.2390    0.2900 oh        1 MOL     -0.467108
     93 H37         3.4740    2.1950    0.0950 hn        1 MOL      0.364839
     94 H38         2.0490    4.4630    1.4240 h1        1 MOL     -0.037151
     95 H39         1.2920    5.1650   -0.8230 hc        1 MOL     -0.048888
     96 H40         2.5510    4.1560   -1.5750 hc        1 MOL     -0.048888
     97 H41         5.1080    4.8960   -0.8730 ha        1 MOL      0.114417
     98 H42         1.5280    7.1940   -0.1470 ha        1 MOL      0.114417
     99 H43         6.4830    6.8220   -0.3260 ha        1 MOL      0.173088
    100 H44         2.8430    9.2280    0.2130 ha        1 MOL      0.173088
    101 H45         4.9280   10.0070    0.3840 ho        1 MOL      0.324228
    102 N10        -0.2470    3.4870    1.0230 n         1 MOL     -0.367166
    103 C34        -1.5290    2.8090    1.0970 c3        1 MOL     -0.021157
    104 C35        -2.6170    3.7680    0.5370 c         1 MOL      0.522663
    105 O15        -2.6830    4.9170    0.9320 o         1 MOL     -0.543454
    106 C36        -1.8100    2.3570    2.5300 c3        1 MOL     -0.006111
    107 C37        -0.9780    1.0470    2.7690 c3        1 MOL      0.099865
    108 C38        -3.3250    2.2700    2.8760 c3        1 MOL     -0.057221
    109 C39        -1.2870    0.4830    4.1910 c3        1 MOL     -0.100275
    110 H46        -0.0570    4.3210    1.5580 hn        1 MOL      0.302141
    111 H47        -1.4980    1.9880    0.3880 h1        1 MOL      0.093587
    112 H48        -1.3960    3.1240    3.1830 hc        1 MOL      0.021256
    113 H49         0.0760    1.2790    2.6280 hc        1 MOL      0.008102
    114 H50        -1.3020    0.2740    2.0770 hc        1 MOL      0.008102
    115 H51        -3.4680    2.1550    3.9510 hc        1 MOL      0.016714
    116 H52        -3.9190    3.1440    2.5910 hc        1 MOL      0.016714
    117 H53        -3.7370    1.3400    2.4860 hc        1 MOL      0.016714
    118 H54        -2.3150    0.1650    4.3480 hc        1 MOL      0.019917
    119 H55        -0.4640   -0.1750    4.4410 hc        1 MOL      0.019917
    120 H56        -1.1670    1.3970    4.7750 hc        1 MOL      0.019917
    121 N11        -3.4650    3.2230   -0.3050 n         1 MOL     -0.264177
    122 C40        -4.6620    3.8260   -0.8210 c3        1 MOL     -0.019827
    123 C41        -5.9010    3.1160   -0.2400 c         1 MOL      0.501536
    124 O16        -5.8260    2.0450    0.4130 o         1 MOL     -0.347268
    125 C42        -4.7810    3.6660   -2.3720 c3        1 MOL      0.108485
    126 O17        -4.5440    2.2980   -2.8390 oh        1 MOL     -0.552996
    127 H57        -3.3260    2.2550   -0.5480 hn        1 MOL      0.163871
    128 H58        -4.7260    4.8800   -0.5480 h1        1 MOL      0.087441
    129 H59        -4.1140    4.3620   -2.8860 h1        1 MOL      0.042319
    130 H60        -5.8160    3.9260   -2.6470 h1        1 MOL      0.042319
    131 H61        -3.6210    2.0320   -2.7370 ho        1 MOL      0.388289
    132 N12        -7.1440    3.7430   -0.2970 n         1 MOL     -0.515288
    133 C43        -8.3050    3.0740    0.3790 c3        1 MOL      0.104938
    134 C44        -8.6370    1.6180   -0.0310 c         1 MOL      0.344655
    135 O18        -8.9280    0.6950    0.8130 o         1 MOL     -0.492749
    136 C45        -9.5160    3.9950    0.1610 c3        1 MOL     -0.322862
    137 H62        -7.2750    4.6940   -0.6000 hn        1 MOL      0.312877
    138 H63        -8.0700    2.9720    1.4410 h1        1 MOL      0.093426
    139 H64       -10.4030    3.5430    0.6070 hc        1 MOL      0.104103
    140 H65        -9.5010    4.9280    0.7130 hc        1 MOL      0.104103
    141 H66        -9.6370    4.1740   -0.9050 hc        1 MOL      0.104103
    142 N13        -8.4120    1.2610   -1.2850 n         1 MOL     -0.216054
    143 C46        -8.4940   -0.0590   -1.8060 c3        1 MOL      0.032643
    144 C47        -7.3610   -0.9510   -1.1940 c         1 MOL      0.389823
    145 O19        -7.6770   -1.9780   -0.5760 o         1 MOL     -0.470866
    146 C48        -8.5540   -0.0070   -3.3730 c3        1 MOL     -0.282082
    147 H67        -8.1100    1.9690   -1.9420 hn        1 MOL      0.241275
    148 H68        -9.4110   -0.4270   -1.3510 h1        1 MOL      0.096333
    149 H69        -7.5600    0.1300   -3.8180 hc        1 MOL      0.084691
    150 H70        -8.7510   -0.9940   -3.7820 hc        1 MOL      0.084691
    151 H71        -9.2760    0.7450   -3.6870 hc        1 MOL      0.084691
    152 N14        -6.0830   -0.5050   -1.1930 n         1 MOL     -0.224590
    153 C49        -5.0810   -1.2670   -0.4830 c3        1 MOL     -0.068405
    154 C50        -5.4020   -1.4570    0.9990 c         1 MOL      0.293302
    155 O20        -5.3170   -2.6180    1.4490 o         1 MOL     -0.528882
    156 C51        -3.7020   -0.6140   -0.6770 c3        1 MOL     -0.084659
    157 C52        -2.5830   -1.5560   -0.1400 c3        1 MOL     -0.004508
    158 C53        -1.1680   -1.1310   -0.3540 c         1 MOL      0.584077
    159 O21        -0.2510   -1.5090    0.4090 o         1 MOL     -0.729688
    160 O22        -0.8700   -0.4910   -1.4340 o         1 MOL     -0.729688
    161 H72        -5.7950    0.2540   -1.7960 hn        1 MOL      0.170554
    162 H73        -5.0340   -2.2560   -0.9280 h1        1 MOL      0.108997
    163 H74        -3.6440    0.2840   -0.0580 hc        1 MOL      0.038019
    164 H75        -3.4800   -0.3200   -1.7000 hc        1 MOL      0.038019
    165 H76        -2.7920   -2.5060   -0.6200 hc        1 MOL      0.038035
    166 H77        -2.6400   -1.7260    0.9290 hc        1 MOL      0.038035
    167 N15        -5.9680   -0.4870    1.6960 n         1 MOL      0.199873
    168 C54        -6.4420   -0.5230    3.0690 c3        1 MOL     -0.262655
    169 H78        -5.7750   -1.1430    3.6680 h1        1 MOL      0.096036
    170 H79        -6.4600    0.4880    3.4750 h1        1 MOL      0.096036
    171 H80        -7.4480   -0.9430    3.0960 h1        1 MOL      0.096036
    172 H81        -5.9370    0.4210    1.2410 hn        1 MOL     -0.008112
    173 Ca1         1.7230   -0.4600   -1.1160 Ca        1 MOL      1.814329
    174 O23         0.9260    0.4920   -3.6060 oh        1 MOL     -0.784452
    175 H82         0.9470   -0.0350   -4.3940 ho        1 MOL      0.390268
    176 H83         0.8630    1.3960   -3.9280 ho        1 MOL      0.390268
@<TRIPOS>BOND
     1    1    2 1   
     2    1    4 1   
     3    1    5 1   
     4    1    6 1   
     5    2    3 2   
     6    2    7 1   
     7    7    8 1   
     8    7   15 1   
     9    8    9 1   
    10    8   11 1   
    11    8   16 1   
    12    9   10 2   
    13    9   19 1   
    14   11   12 1   
    15   11   17 1   
    16   11   18 1   
    17   12   13 1   
    18   12   14 1   
    19   19   20 1   
    20   19   28 1   
    21   20   21 1   
    22   20   23 1   
    23   20   29 1   
    24   21   22 2   
    25   21   41 1   
    26   23   24 1   
    27   23   30 1   
    28   23   31 1   
    29   24   25 1   
    30   24   32 1   
    31   24   33 1   
    32   25   26 1   
    33   25   34 1   
    34   25   35 1   
    35   26   27 1   
    36   26   36 1   
    37   26   37 1   
    38   27   38 1   
    39   27   39 1   
    40   27   40 1   
    41   41   42 1   
    42   41   49 1   
    43   42   43 1   
    44   42   45 1   
    45   42   50 1   
    46   43   44 2   
    47   43   53 1   
    48   45   46 1   
    49   45   51 1   
    50   45   52 1   
    51   46   47 1   
    52   46   48 1   
    53   53   54 1   
    54   53   57 1   
    55   54   55 1   
    56   54   58 1   
    57   54   59 1   
    58   55   56 2   
    59   55   60 1   
    60   60   61 1   
    61   60   68 1   
    62   61   62 1   
    63   61   64 1   
    64   61   69 1   
    65   62   63 2   
    66   62   74 1   
    67   64   65 1   
    68   64   70 1   
    69   64   71 1   
    70   65   66 1   
    71   65   67 2   
    72   66   72 1   
    73   66   73 1   
    74   74   75 1   
    75   74   78 1   
    76   75   76 1   
    77   75   79 1   
    78   75   80 1   
    79   76   77 2   
    80   76   81 1   
    81   81   82 1   
    82   81   93 1   
    83   82   83 1   
    84   82   85 1   
    85   82   94 1   
    86   83   84 2   
    87   83  102 1   
    88   85   86 1   
    89   85   95 1   
    90   85   96 1   
    91   86   87 ar  
    92   86   88 ar  
    93   87   89 ar  
    94   87   97 1   
    95   88   90 ar  
    96   88   98 1   
    97   89   91 ar  
    98   89   99 1   
    99   90   91 ar  
   100   90  100 1   
   101   91   92 1   
   102   92  101 1   
   103  102  103 1   
   104  102  110 1   
   105  103  104 1   
   106  103  106 1   
   107  103  111 1   
   108  104  105 2   
   109  104  121 1   
   110  106  107 1   
   111  106  108 1   
   112  106  112 1   
   113  107  109 1   
   114  107  113 1   
   115  107  114 1   
   116  108  115 1   
   117  108  116 1   
   118  108  117 1   
   119  109  118 1   
   120  109  119 1   
   121  109  120 1   
   122  121  122 1   
   123  121  127 1   
   124  122  123 1   
   125  122  125 1   
   126  122  128 1   
   127  123  124 2   
   128  123  132 1   
   129  125  126 1   
   130  125  129 1   
   131  125  130 1   
   132  126  131 1   
   133  132  133 1   
   134  132  137 1   
   135  133  134 1   
   136  133  136 1   
   137  133  138 1   
   138  134  135 2   
   139  134  142 1   
   140  136  139 1   
   141  136  140 1   
   142  136  141 1   
   143  142  143 1   
   144  142  147 1   
   145  143  144 1   
   146  143  146 1   
   147  143  148 1   
   148  144  145 2   
   149  144  152 1   
   150  146  149 1   
   151  146  150 1   
   152  146  151 1   
   153  152  153 1   
   154  152  161 1   
   155  153  154 1   
   156  153  156 1   
   157  153  162 1   
   158  154  155 2   
   159  154  167 1   
   160  156  157 1   
   161  156  163 1   
   162  156  164 1   
   163  157  158 1   
   164  157  165 1   
   165  157  166 1   
   166  158  159 1   
   167  158  160 1   
   168  167  168 1   
   169  167  172 1   
   170  168  169 1   
   171  168  170 1   
   172  168  171 1   
   173  174  175 1   
   174  174  176 1   
@<TRIPOS>SUBSTRUCTURE
     1 MOL         1 TEMP              0 ****  ****    0 ROOT
