@<TRIPOS>MOLECULE
MOL
  175   173     1     0     0
SMALL
resp


@<TRIPOS>ATOM
      1 C1          0.6190    3.6540    5.5330 c3        1 MOL     -0.387193
      2 C2          0.0120    3.7060    4.0990 c         1 MOL      0.738804
      3 O1          0.7170    3.9870    3.1120 o         1 MOL     -0.568203
      4 H1          1.5240    4.2600    5.5660 hc        1 MOL      0.092958
      5 H2         -0.1050    4.0440    6.2490 hc        1 MOL      0.092958
      6 H3          0.8620    2.6220    5.7880 hc        1 MOL      0.092958
      7 N1         -1.2820    3.5150    4.0160 n         1 MOL     -0.682923
      8 C3         -2.0280    3.3320    2.7240 c3        1 MOL      0.327075
      9 C4         -2.0980    4.5680    1.8000 c         1 MOL      0.462202
     10 O2         -2.6560    5.6070    2.2490 o         1 MOL     -0.557585
     11 C5         -3.3970    2.8500    2.9670 c3        1 MOL     -0.251137
     12 C6         -4.0600    2.6250    1.6400 c         1 MOL      0.579132
     13 O3         -3.4920    1.9560    0.7260 o         1 MOL     -0.585698
     14 O4         -5.0450    3.3870    1.3630 o         1 MOL     -0.585698
     15 H4         -1.8430    3.4550    4.8640 hn        1 MOL      0.333467
     16 H5         -1.5130    2.5500    2.1640 h1        1 MOL     -0.015123
     17 H6         -3.9630    3.4820    3.6620 hc        1 MOL      0.041032
     18 H7         -3.3120    1.8680    3.4240 hc        1 MOL      0.041032
     19 N2         -1.8040    4.3740    0.5150 n         1 MOL     -0.388615
     20 C7         -1.9240    5.4140   -0.5190 c3        1 MOL      0.376288
     21 C8         -2.9040    5.0380   -1.6540 c         1 MOL      0.439487
     22 O5         -3.0630    5.8780   -2.5820 o         1 MOL     -0.569845
     23 C9         -0.4950    5.6190   -1.1110 c3        1 MOL     -0.475637
     24 H8         -1.5130    3.4500    0.2290 hn        1 MOL      0.210816
     25 H9         -2.4070    6.2620   -0.0390 h1        1 MOL     -0.004690
     26 H10         0.2350    5.7340   -0.3150 hc        1 MOL      0.117856
     27 H11        -0.2290    4.7640   -1.7260 hc        1 MOL      0.117856
     28 H12        -0.6880    6.5190   -1.6930 hc        1 MOL      0.117856
     29 N3         -3.5480    3.8010   -1.6930 n         1 MOL     -0.347853
     30 C10        -4.3800    3.4320   -2.8810 c3        1 MOL      0.095737
     31 C11        -5.5510    2.5180   -2.4900 c         1 MOL      0.476439
     32 O6         -6.2700    2.0270   -3.3670 o         1 MOL     -0.575605
     33 C12        -3.4920    2.6540   -3.8660 c3        1 MOL     -0.197960
     34 C13        -2.7460    1.4760   -3.2780 c         1 MOL      0.703232
     35 O7         -1.7590    0.9780   -3.9140 o         1 MOL     -0.688373
     36 O8         -3.1380    0.9920   -2.1640 o         1 MOL     -0.688373
     37 H13        -3.4400    3.0920   -0.9860 hn        1 MOL      0.235897
     38 H14        -4.9690    4.2620   -3.2770 h1        1 MOL      0.051483
     39 H15        -2.7140    3.2880   -4.2960 hc        1 MOL      0.039844
     40 H16        -4.1680    2.3060   -4.6470 hc        1 MOL      0.039844
     41 N4         -5.7510    2.3180   -1.1810 n         1 MOL     -0.110735
     42 C14        -6.9690    1.8290   -0.6250 c3        1 MOL     -0.231618
     43 C15        -7.3240    0.3340   -0.8380 c         1 MOL      0.519535
     44 O9         -8.3550   -0.1820   -0.3640 o         1 MOL     -0.619685
     45 H17        -5.1230    2.8120   -0.5670 hn        1 MOL      0.074633
     46 H18        -7.7320    2.3630   -1.1910 h1        1 MOL      0.107341
     47 H19        -6.9870    2.1170    0.4270 h1        1 MOL      0.107341
     48 N5         -6.4380   -0.3860   -1.5590 n         1 MOL     -0.202008
     49 C16        -6.5030   -1.8170   -2.0470 c3        1 MOL     -0.027905
     50 C17        -6.4990   -2.9580   -1.0070 c         1 MOL      0.419892
     51 O10        -6.3240   -4.1310   -1.3180 o         1 MOL     -0.500006
     52 C18        -5.3480   -1.9520   -3.0120 c3        1 MOL     -0.210895
     53 C19        -3.9720   -1.8590   -2.4100 c         1 MOL      0.696336
     54 N6         -2.9650   -1.9730   -3.2500 n         1 MOL     -0.521217
     55 O11        -3.7030   -1.8150   -1.2100 o         1 MOL     -0.730469
     56 H20        -5.6210    0.1970   -1.6660 hn        1 MOL      0.112989
     57 H21        -7.4610   -1.8590   -2.5730 h1        1 MOL      0.108305
     58 H22        -5.5360   -1.1710   -3.7520 hc        1 MOL      0.076265
     59 H23        -5.3700   -2.9150   -3.5160 hc        1 MOL      0.076265
     60 H24        -3.1280   -2.3380   -4.1820 hn        1 MOL      0.288169
     61 H25        -2.0790   -2.0200   -2.7600 hn        1 MOL      0.288169
     62 N7         -6.4790   -2.6050    0.3120 n         1 MOL     -0.194462
     63 C20        -6.5030   -3.5130    1.4460 c3        1 MOL     -0.372491
     64 C21        -5.1660   -4.3020    1.6840 c         1 MOL      0.559857
     65 O12        -5.0520   -5.1230    2.5650 o         1 MOL     -0.557896
     66 H26        -6.4010   -1.6150    0.5090 hn        1 MOL      0.251148
     67 H27        -7.2890   -4.2340    1.2380 h1        1 MOL      0.150165
     68 H28        -6.7440   -2.9210    2.3370 h1        1 MOL      0.150165
     69 N8         -4.0320   -3.9090    0.9990 n         1 MOL     -0.222442
     70 C22        -2.6950   -4.5910    1.0950 c3        1 MOL     -0.444108
     71 C23        -1.6460   -3.5850    1.3240 c         1 MOL      0.744032
     72 O13        -1.6650   -2.4510    0.7740 o         1 MOL     -0.599410
     73 C24        -2.3700   -5.4350   -0.0580 c3        1 MOL      0.636487
     74 C25        -3.2550   -6.6260   -0.2100 c3        1 MOL     -0.368081
     75 O14        -2.5140   -4.5890   -1.1730 oh        1 MOL     -0.599118
     76 H29        -4.0450   -3.1460    0.3370 hn        1 MOL      0.356756
     77 H30        -2.7240   -5.1280    2.0380 h1        1 MOL      0.128278
     78 H31        -1.3650   -5.8630   -0.0220 h1        1 MOL     -0.053032
     79 H32        -1.8700   -3.9030   -1.0000 ho        1 MOL      0.304614
     80 H33        -2.8630   -7.3560   -0.9280 hc        1 MOL      0.083583
     81 H34        -3.2230   -7.0640    0.7890 hc        1 MOL      0.083583
     82 H35        -4.3010   -6.4160   -0.4160 hc        1 MOL      0.083583
     83 N9         -0.6540   -3.9380    2.1950 n         1 MOL     -0.550147
     84 C26         0.5710   -3.1630    2.1810 c3        1 MOL     -0.024727
     85 C27         1.3410   -3.4190    0.9080 c         1 MOL      0.554414
     86 O15         1.6280   -4.5480    0.5870 o         1 MOL     -0.597727
     87 C28         1.5820   -3.2640    3.3750 c3        1 MOL      0.008069
     88 C29         0.7950   -2.5650    4.5330 c3        1 MOL      0.214400
     89 C30         2.9720   -2.7100    3.2200 c3        1 MOL     -0.108543
     90 C31         1.2830   -2.8860    5.9570 c3        1 MOL     -0.093576
     91 H36        -0.7150   -4.7790    2.7570 hn        1 MOL      0.312145
     92 H37         0.3130   -2.1070    2.0940 h1        1 MOL      0.059569
     93 H38         1.6580   -4.2810    3.7690 hc        1 MOL      0.024588
     94 H39        -0.2400   -2.9110    4.5950 hc        1 MOL     -0.042686
     95 H40         0.7040   -1.4880    4.3950 hc        1 MOL     -0.042686
     96 H41         3.4680   -2.7140    4.1880 hc        1 MOL      0.027403
     97 H42         3.6320   -3.3530    2.6420 hc        1 MOL      0.027403
     98 H43         3.0230   -1.6750    2.8670 hc        1 MOL      0.027403
     99 H44         1.2520   -3.9350    6.2620 hc        1 MOL      0.001224
    100 H45         2.2910   -2.5030    6.0850 hc        1 MOL      0.001224
    101 H46         0.6630   -2.2470    6.5790 hc        1 MOL      0.001224
    102 N10         1.6050   -2.3650    0.1620 n         1 MOL     -0.206753
    103 C32         2.4730   -2.2270   -1.0410 c3        1 MOL      0.047645
    104 C33         3.8520   -1.5690   -0.5910 c         1 MOL      0.260196
    105 O16         3.9980   -0.8280    0.3780 o         1 MOL     -0.259092
    106 C34         1.8160   -1.3260   -2.0680 c3        1 MOL     -0.381179
    107 C35         0.3660   -1.7530   -2.4350 c         1 MOL      0.815991
    108 O17        -0.6300   -1.1790   -1.8500 o         1 MOL     -0.680403
    109 O18         0.2640   -2.6390   -3.3410 o         1 MOL     -0.680403
    110 H47         1.5260   -1.4880    0.6510 hn        1 MOL      0.157365
    111 H48         2.6420   -3.1880   -1.5320 h1        1 MOL      0.082728
    112 H49         2.4500   -1.3160   -2.9640 hc        1 MOL      0.111878
    113 H50         1.7280   -0.2920   -1.7500 hc        1 MOL      0.111878
    114 N11         4.9250   -1.8970   -1.3630 n         1 MOL     -0.493252
    115 C36         6.3440   -1.5160   -1.1720 c3        1 MOL      0.364989
    116 C37         6.5230    0.0370   -1.0280 c         1 MOL      0.233031
    117 O19         7.2630    0.4180   -0.0980 o         1 MOL     -0.516398
    118 C38         7.1860   -2.0410   -2.3030 c3        1 MOL     -0.393191
    119 C39         8.7330   -1.9220   -2.0780 ca        1 MOL      0.281791
    120 C40         9.2890   -2.8190   -1.1590 ca        1 MOL     -0.263816
    121 C41         9.5950   -1.1260   -2.8340 ca        1 MOL     -0.263816
    122 C42        10.6670   -2.8720   -0.9480 ca        1 MOL     -0.016076
    123 C43        10.9600   -1.1540   -2.6520 ca        1 MOL     -0.016076
    124 C44        11.5120   -2.0410   -1.6690 ca        1 MOL     -0.220193
    125 H51         4.7640   -2.6950   -1.9610 hn        1 MOL      0.303531
    126 H52         6.6930   -1.9880   -0.2510 h1        1 MOL      0.034058
    127 H53         6.9440   -1.4140   -3.1650 hc        1 MOL      0.100837
    128 H54         6.9400   -3.0960   -2.4150 hc        1 MOL      0.100837
    129 H55         8.6810   -3.5760   -0.6920 ha        1 MOL      0.138598
    130 H56         9.1420   -0.4240   -3.5230 ha        1 MOL      0.138598
    131 H57        11.0400   -3.5770   -0.2250 ha        1 MOL      0.090894
    132 H58        11.5860   -0.6250   -3.3470 ha        1 MOL      0.090894
    133 H59        12.5800   -1.9910   -1.4750 ha        1 MOL      0.124539
    134 N12         5.8980    0.9460   -1.8150 n         1 MOL      0.079864
    135 C45         6.3010    2.3690   -1.6430 c3        1 MOL      0.023619
    136 C46         5.6540    2.9810   -0.3620 c         1 MOL      0.371073
    137 O20         5.9440    4.0710    0.0690 o         1 MOL     -0.532913
    138 C47         5.7570    3.0380   -2.9160 c3        1 MOL     -0.283915
    139 C48         4.5260    2.0870   -3.1900 c3        1 MOL      0.114600
    140 C49         5.1360    0.7000   -2.9840 c3        1 MOL     -0.074286
    141 H60         7.3720    2.5420   -1.5370 h1        1 MOL      0.075529
    142 H61         5.4830    4.0910   -2.8240 hc        1 MOL      0.090047
    143 H62         6.5460    2.9220   -3.6560 hc        1 MOL      0.090047
    144 H63         3.6260    2.3070   -2.6300 hc        1 MOL      0.013079
    145 H64         4.2210    2.1590   -4.2380 hc        1 MOL      0.013079
    146 H65         4.3060   -0.0010   -2.9230 h1        1 MOL      0.013348
    147 H66         5.8720    0.5000   -3.7630 h1        1 MOL      0.013348
    148 N13         4.7880    2.2340    0.2460 n         1 MOL     -0.093280
    149 C50         4.1010    2.6500    1.4840 c3        1 MOL     -0.174238
    150 C51         5.0550    2.1400    2.6460 c         1 MOL      0.500497
    151 O21         5.4270    2.9240    3.5120 o         1 MOL     -0.551169
    152 C52         2.7650    1.8510    1.6350 c3        1 MOL     -0.040859
    153 C53         1.8440    2.1710    0.4450 c3        1 MOL      0.055482
    154 C54         0.4670    1.5090    0.5280 c         1 MOL      0.619169
    155 O22        -0.4380    1.8470   -0.2020 o         1 MOL     -0.715603
    156 O23         0.3290    0.4100    1.0970 o         1 MOL     -0.715603
    157 H67         4.5000    1.3900   -0.2210 hn        1 MOL      0.166396
    158 H68         4.0210    3.7330    1.5210 h1        1 MOL      0.141443
    159 H69         2.3640    2.1160    2.6150 hc        1 MOL      0.005154
    160 H70         2.9680    0.7810    1.6030 hc        1 MOL      0.005154
    161 H71         2.3030    1.9970   -0.5280 hc        1 MOL      0.032629
    162 H72         1.7120    3.2480    0.3910 hc        1 MOL      0.032629
    163 N14         5.4700    0.8680    2.5390 n         1 MOL     -0.095339
    164 C55         6.3790    0.1380    3.4150 c3        1 MOL     -0.245519
    165 H73         7.2970    0.7120    3.5430 h1        1 MOL      0.090028
    166 H74         5.9070   -0.0120    4.3850 h1        1 MOL      0.090028
    167 H75         6.6140   -0.8290    2.9700 h1        1 MOL      0.090028
    168 H76         5.0590    0.3270    1.7880 hn        1 MOL      0.084787
    169 Ca1        -2.0820   -0.0620   -0.0550 Ca        1 MOL      1.705009
    170 O24        -1.4960    0.0550    2.8360 oh        1 MOL     -0.869023
    171 H77        -1.3720    0.6600    3.5670 ho        1 MOL      0.412612
    172 H78        -0.6400   -0.0210    2.4350 ho        1 MOL      0.412612
    173 O25        -3.9440   -0.7090    1.8250 oh        1 MOL     -0.869023
    174 H79        -4.8640   -0.4940    2.0030 ho        1 MOL      0.412612
    175 H80        -3.5030   -0.6000    2.6580 ho        1 MOL      0.412612
@<TRIPOS>BOND
     1    1    2 1   
     2    1    4 1   
     3    1    5 1   
     4    1    6 1   
     5    2    3 2   
     6    2    7 1   
     7    7    8 1   
     8    7   15 1   
     9    8    9 1   
    10    8   11 1   
    11    8   16 1   
    12    9   10 2   
    13    9   19 1   
    14   11   12 1   
    15   11   17 1   
    16   11   18 1   
    17   12   13 1   
    18   12   14 1   
    19   19   20 1   
    20   19   24 1   
    21   20   21 1   
    22   20   23 1   
    23   20   25 1   
    24   21   22 2   
    25   21   29 1   
    26   23   26 1   
    27   23   27 1   
    28   23   28 1   
    29   29   30 1   
    30   29   37 1   
    31   30   31 1   
    32   30   33 1   
    33   30   38 1   
    34   31   32 2   
    35   31   41 1   
    36   33   34 1   
    37   33   39 1   
    38   33   40 1   
    39   34   35 1   
    40   34   36 1   
    41   41   42 1   
    42   41   45 1   
    43   42   43 1   
    44   42   46 1   
    45   42   47 1   
    46   43   44 2   
    47   43   48 1   
    48   48   49 1   
    49   48   56 1   
    50   49   50 1   
    51   49   52 1   
    52   49   57 1   
    53   50   51 2   
    54   50   62 1   
    55   52   53 1   
    56   52   58 1   
    57   52   59 1   
    58   53   54 1   
    59   53   55 2   
    60   54   60 1   
    61   54   61 1   
    62   62   63 1   
    63   62   66 1   
    64   63   64 1   
    65   63   67 1   
    66   63   68 1   
    67   64   65 2   
    68   64   69 1   
    69   69   70 1   
    70   69   76 1   
    71   70   71 1   
    72   70   73 1   
    73   70   77 1   
    74   71   72 2   
    75   71   83 1   
    76   73   74 1   
    77   73   75 1   
    78   73   78 1   
    79   74   80 1   
    80   74   81 1   
    81   74   82 1   
    82   75   79 1   
    83   83   84 1   
    84   83   91 1   
    85   84   85 1   
    86   84   87 1   
    87   84   92 1   
    88   85   86 2   
    89   85  102 1   
    90   87   88 1   
    91   87   89 1   
    92   87   93 1   
    93   88   90 1   
    94   88   94 1   
    95   88   95 1   
    96   89   96 1   
    97   89   97 1   
    98   89   98 1   
    99   90   99 1   
   100   90  100 1   
   101   90  101 1   
   102  102  103 1   
   103  102  110 1   
   104  103  104 1   
   105  103  106 1   
   106  103  111 1   
   107  104  105 2   
   108  104  114 1   
   109  106  107 1   
   110  106  112 1   
   111  106  113 1   
   112  107  108 1   
   113  107  109 1   
   114  114  115 1   
   115  114  125 1   
   116  115  116 1   
   117  115  118 1   
   118  115  126 1   
   119  116  117 2   
   120  116  134 1   
   121  118  119 1   
   122  118  127 1   
   123  118  128 1   
   124  119  120 ar  
   125  119  121 ar  
   126  120  122 ar  
   127  120  129 1   
   128  121  123 ar  
   129  121  130 1   
   130  122  124 ar  
   131  122  131 1   
   132  123  124 ar  
   133  123  132 1   
   134  124  133 1   
   135  134  135 1   
   136  134  140 1   
   137  135  136 1   
   138  135  138 1   
   139  135  141 1   
   140  136  137 2   
   141  136  148 1   
   142  138  139 1   
   143  138  142 1   
   144  138  143 1   
   145  139  140 1   
   146  139  144 1   
   147  139  145 1   
   148  140  146 1   
   149  140  147 1   
   150  148  149 1   
   151  148  157 1   
   152  149  150 1   
   153  149  152 1   
   154  149  158 1   
   155  150  151 2   
   156  150  163 1   
   157  152  153 1   
   158  152  159 1   
   159  152  160 1   
   160  153  154 1   
   161  153  161 1   
   162  153  162 1   
   163  154  155 1   
   164  154  156 1   
   165  163  164 1   
   166  163  168 1   
   167  164  165 1   
   168  164  166 1   
   169  164  167 1   
   170  170  171 1   
   171  170  172 1   
   172  173  174 1   
   173  173  175 1   
@<TRIPOS>SUBSTRUCTURE
     1 MOL         1 TEMP              0 ****  ****    0 ROOT
