@<TRIPOS>MOLECULE
MOL
  186   183     1     0     0
SMALL
resp


@<TRIPOS>ATOM
      1 C1         -0.7630   -2.9290   -6.0990 c3        1 MOL     -0.351786
      2 C2         -1.0790   -2.7390   -4.6010 c         1 MOL      0.679431
      3 O1         -0.2540   -3.1700   -3.7860 o         1 MOL     -0.540348
      4 H1          0.1740   -2.4260   -6.3390 hc        1 MOL      0.085321
      5 H2         -0.6700   -3.9930   -6.3190 hc        1 MOL      0.085321
      6 H3         -1.5680   -2.5020   -6.6980 hc        1 MOL      0.085321
      7 N1         -2.2220   -2.1100   -4.1710 n         1 MOL     -0.607003
      8 C3         -2.7930   -1.8310   -2.8470 c3        1 MOL      0.299254
      9 C4         -3.3710   -3.1590   -2.3330 c         1 MOL      0.358372
     10 O2         -4.4330   -3.6000   -2.7260 o         1 MOL     -0.542912
     11 C5         -3.8910   -0.7690   -2.9830 c3        1 MOL     -0.335341
     12 C6         -4.5240   -0.5670   -1.6190 c         1 MOL      0.897254
     13 O3         -5.7320   -0.2120   -1.5810 o         1 MOL     -0.700823
     14 O4         -3.9250   -0.6550   -0.5350 o         1 MOL     -0.700823
     15 H4         -2.8430   -1.8750   -4.9320 hn        1 MOL      0.294559
     16 H5         -2.0540   -1.4480   -2.1390 h1        1 MOL      0.046031
     17 H6         -4.7130   -1.1270   -3.6130 hc        1 MOL      0.062894
     18 H7         -3.5150    0.1760   -3.3820 hc        1 MOL      0.062894
     19 N2         -2.8410   -3.6430   -1.1810 n         1 MOL     -0.076787
     20 C7         -3.0750   -5.0560   -0.6600 c3        1 MOL      0.036453
     21 C8         -4.2280   -5.0810    0.3320 c         1 MOL      0.315767
     22 O5         -5.0910   -5.9920    0.2630 o         1 MOL     -0.561119
     23 C9         -1.7930   -5.5530    0.0090 c3        1 MOL      0.088300
     24 C10        -0.5360   -5.5350   -0.9370 c3        1 MOL      0.016934
     25 C11        -1.9370   -6.9550    0.6750 c3        1 MOL     -0.294639
     26 C12        -0.4890   -6.4950   -2.0460 c3        1 MOL     -0.344170
     27 H8         -1.9650   -3.2580   -0.8550 hn        1 MOL      0.090036
     28 H9         -3.3420   -5.7200   -1.4780 h1        1 MOL      0.072816
     29 H10        -1.6200   -4.8280    0.8090 hc        1 MOL     -0.000125
     30 H11         0.3800   -5.5650   -0.3530 hc        1 MOL      0.059714
     31 H12        -0.4750   -4.5500   -1.4120 hc        1 MOL      0.059714
     32 H13        -1.0690   -7.1870    1.2950 hc        1 MOL      0.068764
     33 H14        -2.7580   -6.9560    1.3890 hc        1 MOL      0.068764
     34 H15        -2.1540   -7.7040   -0.0850 hc        1 MOL      0.068764
     35 H16        -0.2350   -7.4850   -1.6590 hc        1 MOL      0.076719
     36 H17        -1.4180   -6.5140   -2.6070 hc        1 MOL      0.076719
     37 H18         0.3280   -6.2040   -2.7150 hc        1 MOL      0.076719
     38 N3         -4.3750   -4.0580    1.2060 n         1 MOL     -0.006760
     39 C13        -5.3880   -3.8920    2.2420 c3        1 MOL     -0.158854
     40 C14        -6.5470   -2.9330    1.9840 c         1 MOL      0.457718
     41 O6         -7.5530   -2.9080    2.6470 o         1 MOL     -0.537589
     42 C15        -4.7270   -3.4310    3.5050 c3        1 MOL     -0.147050
     43 C16        -3.7910   -2.1460    3.4730 c         1 MOL      0.768621
     44 O7         -3.1450   -1.8680    4.4930 o         1 MOL     -0.717626
     45 O8         -3.5850   -1.4780    2.4280 o         1 MOL     -0.717626
     46 H19        -3.7900   -3.2500    1.0730 hn        1 MOL      0.060590
     47 H20        -5.7830   -4.8840    2.4460 h1        1 MOL      0.118170
     48 H21        -4.0250   -4.2240    3.7760 hc        1 MOL      0.037077
     49 H22        -5.3610   -3.2830    4.3760 hc        1 MOL      0.037077
     50 N4         -6.5010   -2.3200    0.8270 n         1 MOL     -0.099314
     51 C17        -7.7510   -1.8400    0.1470 c3        1 MOL     -0.337222
     52 C18        -8.1120   -0.4140    0.6070 c         1 MOL      0.673952
     53 O9         -9.2230   -0.0980    0.9140 o         1 MOL     -0.640272
     54 H23        -5.6900   -2.2740    0.2260 hn        1 MOL      0.192444
     55 H24        -8.5060   -2.6070    0.2990 h1        1 MOL      0.136621
     56 H25        -7.5530   -1.7640   -0.9170 h1        1 MOL      0.136621
     57 N5         -7.1870    0.5310    0.6270 n         1 MOL     -0.171958
     58 C19        -7.3030    1.9200    1.0760 c3        1 MOL      0.040697
     59 C20        -6.9430    2.9550    0.0800 c         1 MOL      0.472601
     60 O10        -7.1370    4.1910    0.2720 o         1 MOL     -0.579539
     61 C21        -6.5240    2.2290    2.3630 c3        1 MOL     -0.122629
     62 C22        -4.9690    2.0870    2.2970 c         1 MOL      0.771552
     63 O11        -4.3000    1.9620    3.3320 o         1 MOL     -0.731078
     64 O12        -4.3590    2.1230    1.2200 o         1 MOL     -0.731078
     65 H26        -6.3220    0.2320    0.2070 hn        1 MOL     -0.105706
     66 H27        -8.3530    2.1520    1.2810 h1        1 MOL      0.081184
     67 H28        -6.8210    1.6260    3.2130 hc        1 MOL      0.022804
     68 H29        -6.7120    3.2690    2.6010 hc        1 MOL      0.022804
     69 N6         -6.6050    2.4800   -1.1090 n         1 MOL     -0.335923
     70 C23        -6.3600    3.2470   -2.3720 c3        1 MOL      0.025733
     71 C24        -5.0350    4.1010   -2.2840 c         1 MOL      0.411040
     72 O13        -4.8860    5.1070   -2.9710 o         1 MOL     -0.585815
     73 H30        -6.2030    1.5620   -1.0310 hn        1 MOL      0.227392
     74 H31        -7.2430    3.7960   -2.7160 h1        1 MOL      0.055551
     75 H32        -6.1270    2.5660   -3.1850 h1        1 MOL      0.055551
     76 N7         -4.1200    3.7130   -1.4300 n         1 MOL     -0.122779
     77 C25        -2.7350    4.2340   -1.3290 c3        1 MOL     -0.030431
     78 C26        -1.6910    3.1350   -1.3400 c         1 MOL      0.520158
     79 O14        -2.0230    2.0120   -0.9590 o         1 MOL     -0.674462
     80 C27        -2.4490    5.1420   -0.1460 c3        1 MOL     -0.156437
     81 C28        -3.4810    6.2150    0.1370 c3        1 MOL     -0.200777
     82 C29        -3.0760    7.1300    1.2380 c         1 MOL      0.764198
     83 N8         -3.3750    8.3940    1.1740 n         1 MOL     -0.843183
     84 O15        -2.3830    6.7640    2.1190 o         1 MOL     -0.583001
     85 H33        -4.2670    2.9250   -0.8250 hn        1 MOL      0.207494
     86 H34        -2.6230    4.8260   -2.2350 h1        1 MOL      0.044945
     87 H35        -1.4430    5.5600   -0.1450 hc        1 MOL      0.078134
     88 H36        -2.4400    4.4880    0.7340 hc        1 MOL      0.078134
     89 H37        -4.4370    5.8010    0.4630 hc        1 MOL      0.077115
     90 H38        -3.6810    6.8140   -0.7520 hc        1 MOL      0.077115
     91 H39        -3.7310    8.8050    0.3250 hn        1 MOL      0.346177
     92 H40        -2.9150    9.0210    1.8080 hn        1 MOL      0.346177
     93 N9         -0.4940    3.4290   -1.8500 n         1 MOL     -0.355721
     94 C30         0.6360    2.4980   -1.9800 c3        1 MOL     -0.039672
     95 C31         1.7810    2.9410   -1.0290 c         1 MOL      0.464214
     96 O16         2.3910    3.9250   -1.3590 o         1 MOL     -0.556142
     97 C32         1.0870    2.3820   -3.4430 c3        1 MOL      0.435478
     98 C33         2.2040    1.2920   -3.5950 c3        1 MOL     -0.303685
     99 C34        -0.0030    1.9510   -4.3790 c3        1 MOL     -0.303685
    100 H41        -0.3900    4.2750   -2.3990 hn        1 MOL      0.244378
    101 H42         0.3640    1.4710   -1.7140 h1        1 MOL      0.149903
    102 H43         1.5670    3.2770   -3.8360 hc        1 MOL     -0.088437
    103 H44         3.0730    1.6210   -3.0370 hc        1 MOL      0.050501
    104 H45         1.8240    0.3700   -3.1620 hc        1 MOL      0.050501
    105 H46         2.5140    1.1660   -4.6400 hc        1 MOL      0.050501
    106 H47         0.4120    1.7960   -5.3680 hc        1 MOL      0.050501
    107 H48        -0.4640    1.0420   -3.9860 hc        1 MOL      0.050501
    108 H49        -0.6300    2.8340   -4.5150 hc        1 MOL      0.050501
    109 N10         1.9080    2.2190    0.0920 n         1 MOL     -0.417978
    110 C35         3.1480    2.2240    0.9050 c3        1 MOL      0.121475
    111 C36         4.3680    1.7980    0.0470 c         1 MOL      0.268844
    112 O17         4.2390    0.9170   -0.7800 o         1 MOL     -0.183377
    113 C37         2.8990    1.1870    2.0010 c3        1 MOL     -0.312151
    114 C38         3.9620    1.0950    3.0480 c         1 MOL      0.595003
    115 N11         3.8150    0.1420    3.9550 n         1 MOL     -0.647415
    116 O18         4.8410    1.9030    3.1670 o         1 MOL     -0.577480
    117 H50         1.3730    1.3670    0.1250 hn        1 MOL      0.385482
    118 H51         3.3850    3.2070    1.3050 h1        1 MOL      0.075065
    119 H52         2.8190    0.1580    1.6440 hc        1 MOL      0.127190
    120 H53         1.9540    1.4730    2.4790 hc        1 MOL      0.127190
    121 H54         3.0150   -0.4640    3.9410 hn        1 MOL      0.333654
    122 H55         4.5760    0.1240    4.6160 hn        1 MOL      0.333654
    123 N12         5.5170    2.3610    0.3690 n         1 MOL     -0.523302
    124 C39         6.7270    1.7550   -0.0720 c3        1 MOL      0.343235
    125 C40         6.7910    0.2430    0.1830 c         1 MOL      0.605663
    126 O19         7.2350   -0.4230   -0.7520 o         1 MOL     -0.536064
    127 C41         8.0080    2.4010    0.5070 c3        1 MOL     -0.278755
    128 C42         9.2780    1.9170   -0.1910 ca        1 MOL      0.110109
    129 C43         9.4370    2.0430   -1.5230 ca        1 MOL     -0.201008
    130 C44        10.3240    1.3100    0.5400 ca        1 MOL     -0.201008
    131 C45        10.6240    1.6810   -2.1440 ca        1 MOL     -0.204382
    132 C46        11.4920    0.8360   -0.1380 ca        1 MOL     -0.204382
    133 C47        11.6940    1.0830   -1.5090 ca        1 MOL      0.270366
    134 O20        12.8080    0.5610   -2.1780 oh        1 MOL     -0.507146
    135 H56         5.5550    3.0350    1.1240 hn        1 MOL      0.317299
    136 H57         6.8620    1.8670   -1.1430 h1        1 MOL      0.014546
    137 H58         8.1910    2.2430    1.5740 hc        1 MOL      0.086485
    138 H59         7.9340    3.4740    0.3320 hc        1 MOL      0.086485
    139 H60         8.7560    2.6070   -2.1330 ha        1 MOL      0.144233
    140 H61        10.2830    1.2490    1.6140 ha        1 MOL      0.144233
    141 H62        10.7630    1.8430   -3.2090 ha        1 MOL      0.122262
    142 H63        12.2540    0.2630    0.3800 ha        1 MOL      0.122262
    143 H64        13.2150   -0.0690   -1.5790 ho        1 MOL      0.365231
    144 N13         6.2800   -0.4210    1.2170 n         1 MOL     -0.419753
    145 C48         6.4550   -1.8800    1.4580 c3        1 MOL     -0.140153
    146 C49         5.4510   -2.6460    0.5500 c         1 MOL      0.412976
    147 O21         5.6450   -3.7670    0.2090 o         1 MOL     -0.517908
    148 C50         6.2830   -2.1780    2.9530 c3        1 MOL      0.066947
    149 C51         7.0690   -1.1690    3.9030 c3        1 MOL     -0.116167
    150 C52         6.7750   -1.4700    5.3620 c         1 MOL      0.634011
    151 O22         5.5860   -1.2350    5.7550 o         1 MOL     -0.702570
    152 O23         7.5940   -2.0620    6.1280 o         1 MOL     -0.702570
    153 H65         5.7200    0.0970    1.8770 hn        1 MOL      0.184940
    154 H66         7.4340   -2.1800    1.0950 h1        1 MOL      0.130186
    155 H67         6.6130   -3.1950    3.1500 hc        1 MOL      0.030678
    156 H68         5.1940   -2.1170    3.0630 hc        1 MOL      0.030678
    157 H69         6.7050   -0.1500    3.7780 hc        1 MOL      0.002039
    158 H70         8.1490   -1.0490    3.8370 hc        1 MOL      0.002039
    159 N14         4.4110   -1.9960    0.0470 n         1 MOL     -0.122517
    160 C53         3.5480   -2.3790   -1.0610 c3        1 MOL     -0.106813
    161 C54         4.1630   -2.2910   -2.4370 c         1 MOL      0.455249
    162 O24         3.9520   -3.1650   -3.3110 o         1 MOL     -0.570718
    163 C55         2.2370   -1.6600   -1.0370 c3        1 MOL     -0.005514
    164 C56         1.4100   -1.9210    0.2350 c3        1 MOL     -0.001847
    165 C57         0.1160   -1.0670    0.2770 c         1 MOL      0.564401
    166 O25        -1.0240   -1.5280   -0.0660 o         1 MOL     -0.694290
    167 O26         0.1400    0.1240    0.5670 o         1 MOL     -0.694290
    168 H71         4.3970   -1.0050    0.2440 hn        1 MOL      0.159984
    169 H72         3.2780   -3.4120   -0.8750 h1        1 MOL      0.092519
    170 H73         1.6410   -1.9830   -1.8830 hc        1 MOL      0.043955
    171 H74         2.4160   -0.5850   -1.1050 hc        1 MOL      0.043955
    172 H75         2.0520   -1.7930    1.1090 hc        1 MOL     -0.020477
    173 H76         1.2100   -2.9770    0.3840 hc        1 MOL     -0.020477
    174 N15         4.7830   -1.1470   -2.7320 n         1 MOL      0.024919
    175 C58         5.4430   -0.8970   -4.0460 c3        1 MOL     -0.277900
    176 H77         6.2220   -0.1440   -3.9240 h1        1 MOL      0.101899
    177 H78         5.8880   -1.8230   -4.4120 h1        1 MOL      0.101899
    178 H79         4.7040   -0.5400   -4.7630 h1        1 MOL      0.101899
    179 H80         4.7680   -0.5080   -1.9530 hn        1 MOL     -0.086854
    180 Ca1        -2.4000    0.3570    1.0990 Ca        1 MOL      1.777443
    181 O27        -1.4540    0.1200    3.6690 oh        1 MOL     -0.894059
    182 H81        -2.0970   -0.5730    3.8280 ho        1 MOL      0.421466
    183 H82        -1.4000    0.5930    4.5030 ho        1 MOL      0.421466
    184 O28        -1.3080    2.6810    2.0460 oh        1 MOL     -0.894059
    185 H83        -2.0780    3.2150    2.2480 ho        1 MOL      0.421466
    186 H84        -0.6300    2.9980    2.6360 ho        1 MOL      0.421466
@<TRIPOS>BOND
     1    1    2 1   
     2    1    4 1   
     3    1    5 1   
     4    1    6 1   
     5    2    3 2   
     6    2    7 1   
     7    7    8 1   
     8    7   15 1   
     9    8    9 1   
    10    8   11 1   
    11    8   16 1   
    12    9   10 2   
    13    9   19 1   
    14   11   12 1   
    15   11   17 1   
    16   11   18 1   
    17   12   13 1   
    18   12   14 1   
    19   19   20 1   
    20   19   27 1   
    21   20   21 1   
    22   20   23 1   
    23   20   28 1   
    24   21   22 2   
    25   21   38 1   
    26   23   24 1   
    27   23   25 1   
    28   23   29 1   
    29   24   26 1   
    30   24   30 1   
    31   24   31 1   
    32   25   32 1   
    33   25   33 1   
    34   25   34 1   
    35   26   35 1   
    36   26   36 1   
    37   26   37 1   
    38   38   39 1   
    39   38   46 1   
    40   39   40 1   
    41   39   42 1   
    42   39   47 1   
    43   40   41 2   
    44   40   50 1   
    45   42   43 1   
    46   42   48 1   
    47   42   49 1   
    48   43   44 1   
    49   43   45 1   
    50   50   51 1   
    51   50   54 1   
    52   51   52 1   
    53   51   55 1   
    54   51   56 1   
    55   52   53 2   
    56   52   57 1   
    57   57   58 1   
    58   57   65 1   
    59   58   59 1   
    60   58   61 1   
    61   58   66 1   
    62   59   60 2   
    63   59   69 1   
    64   61   62 1   
    65   61   67 1   
    66   61   68 1   
    67   62   63 1   
    68   62   64 1   
    69   69   70 1   
    70   69   73 1   
    71   70   71 1   
    72   70   74 1   
    73   70   75 1   
    74   71   72 2   
    75   71   76 1   
    76   76   77 1   
    77   76   85 1   
    78   77   78 1   
    79   77   80 1   
    80   77   86 1   
    81   78   79 2   
    82   78   93 1   
    83   80   81 1   
    84   80   87 1   
    85   80   88 1   
    86   81   82 1   
    87   81   89 1   
    88   81   90 1   
    89   82   83 1   
    90   82   84 2   
    91   83   91 1   
    92   83   92 1   
    93   93   94 1   
    94   93  100 1   
    95   94   95 1   
    96   94   97 1   
    97   94  101 1   
    98   95   96 2   
    99   95  109 1   
   100   97   98 1   
   101   97   99 1   
   102   97  102 1   
   103   98  103 1   
   104   98  104 1   
   105   98  105 1   
   106   99  106 1   
   107   99  107 1   
   108   99  108 1   
   109  109  110 1   
   110  109  117 1   
   111  110  111 1   
   112  110  113 1   
   113  110  118 1   
   114  111  112 2   
   115  111  123 1   
   116  113  114 1   
   117  113  119 1   
   118  113  120 1   
   119  114  115 1   
   120  114  116 2   
   121  115  121 1   
   122  115  122 1   
   123  123  124 1   
   124  123  135 1   
   125  124  125 1   
   126  124  127 1   
   127  124  136 1   
   128  125  126 2   
   129  125  144 1   
   130  127  128 1   
   131  127  137 1   
   132  127  138 1   
   133  128  129 ar  
   134  128  130 ar  
   135  129  131 ar  
   136  129  139 1   
   137  130  132 ar  
   138  130  140 1   
   139  131  133 ar  
   140  131  141 1   
   141  132  133 ar  
   142  132  142 1   
   143  133  134 1   
   144  134  143 1   
   145  144  145 1   
   146  144  153 1   
   147  145  146 1   
   148  145  148 1   
   149  145  154 1   
   150  146  147 2   
   151  146  159 1   
   152  148  149 1   
   153  148  155 1   
   154  148  156 1   
   155  149  150 1   
   156  149  157 1   
   157  149  158 1   
   158  150  151 1   
   159  150  152 1   
   160  159  160 1   
   161  159  168 1   
   162  160  161 1   
   163  160  163 1   
   164  160  169 1   
   165  161  162 2   
   166  161  174 1   
   167  163  164 1   
   168  163  170 1   
   169  163  171 1   
   170  164  165 1   
   171  164  172 1   
   172  164  173 1   
   173  165  166 1   
   174  165  167 1   
   175  174  175 1   
   176  174  179 1   
   177  175  176 1   
   178  175  177 1   
   179  175  178 1   
   180  181  182 1   
   181  181  183 1   
   182  184  185 1   
   183  184  186 1   
@<TRIPOS>SUBSTRUCTURE
     1 MOL         1 TEMP              0 ****  ****    0 ROOT
