@<TRIPOS>MOLECULE
MOL
  183   181     1     0     0
SMALL
resp


@<TRIPOS>ATOM
      1 C1         -1.1460    0.8840    6.4300 c3        1 MOL     -0.368013
      2 C2         -1.4550    1.3580    4.9740 c         1 MOL      0.744374
      3 O1         -0.7170    2.1330    4.3470 o         1 MOL     -0.601662
      4 H1         -0.9050    1.7490    7.0500 hc        1 MOL      0.086387
      5 H2         -2.0180    0.3760    6.8410 hc        1 MOL      0.086387
      6 H3         -0.2970    0.1990    6.4170 hc        1 MOL      0.086387
      7 N1         -2.5180    0.8170    4.3960 n         1 MOL     -0.614224
      8 C3         -2.8840    1.1010    3.0470 c3        1 MOL      0.185372
      9 C4         -3.3260    2.5490    2.6990 c         1 MOL      0.491606
     10 O2         -4.1370    3.2080    3.3590 o         1 MOL     -0.575890
     11 C5         -3.9580    0.0930    2.6040 c3        1 MOL     -0.200387
     12 C6         -4.5980    0.2950    1.2350 c         1 MOL      0.621156
     13 O3         -5.6760   -0.2540    1.1280 o         1 MOL     -0.537605
     14 O4         -4.0150    0.8650    0.2720 o         1 MOL     -0.537605
     15 H4         -3.1090    0.2470    4.9800 hn        1 MOL      0.322023
     16 H5         -2.1010    0.8580    2.3180 h1        1 MOL      0.037033
     17 H6         -4.7310    0.0340    3.3720 hc        1 MOL      0.035514
     18 H7         -3.4400   -0.8680    2.6390 hc        1 MOL      0.035514
     19 N2         -2.7910    3.1310    1.6070 n         1 MOL     -0.232543
     20 C7         -2.9180    4.5750    1.2500 c3        1 MOL     -0.316689
     21 C8         -3.9640    4.7110    0.2330 c         1 MOL      0.581432
     22 O5         -4.5580    5.7880    0.0430 o         1 MOL     -0.593781
     23 C9         -1.5530    5.1140    0.7700 c3        1 MOL      0.267049
     24 C10        -0.5070    4.9770    1.9040 c3        1 MOL      0.124968
     25 C11        -1.5340    6.6140    0.3870 c3        1 MOL     -0.168379
     26 C12         0.9050    5.4280    1.6780 c3        1 MOL     -0.144367
     27 H8         -2.1760    2.6400    0.9750 hn        1 MOL      0.162241
     28 H9         -3.1090    5.1690    2.1430 h1        1 MOL      0.143654
     29 H10        -1.1570    4.5870   -0.0990 hc        1 MOL      0.004236
     30 H11        -0.3290    3.9170    2.0750 hc        1 MOL     -0.019824
     31 H12        -0.8380    5.4790    2.8190 hc        1 MOL     -0.019824
     32 H13        -2.2480    6.7910   -0.4210 hc        1 MOL      0.017644
     33 H14        -1.8240    7.1930    1.2610 hc        1 MOL      0.017644
     34 H15        -0.5550    6.9970    0.1040 hc        1 MOL      0.017644
     35 H16         1.4920    5.0400    2.5110 hc        1 MOL      0.021525
     36 H17         1.3270    5.0050    0.7770 hc        1 MOL      0.021525
     37 H18         1.0000    6.5160    1.6880 hc        1 MOL      0.021525
     38 N3         -4.3450    3.5980   -0.4070 n         1 MOL      0.058017
     39 C13        -5.3710    3.5210   -1.4190 c3        1 MOL     -0.492380
     40 C14        -6.7970    3.0820   -1.0750 c         1 MOL      0.690491
     41 O6         -7.7590    3.3960   -1.7950 o         1 MOL     -0.562655
     42 C15        -4.8690    2.6540   -2.6120 c3        1 MOL      0.254886
     43 C16        -3.3380    2.8240   -2.8560 c         1 MOL      0.595884
     44 O7         -3.0980    3.5490   -3.8500 o         1 MOL     -0.687882
     45 O8         -2.5040    2.0690   -2.3350 o         1 MOL     -0.687882
     46 H19        -4.0250    2.7050   -0.0550 hn        1 MOL     -0.052905
     47 H20        -5.5580    4.5250   -1.7860 h1        1 MOL      0.138685
     48 H21        -5.3730    2.8390   -3.5650 hc        1 MOL     -0.041155
     49 H22        -5.1070    1.6260   -2.3600 hc        1 MOL     -0.041155
     50 N4         -7.0330    2.3050    0.0110 n         1 MOL     -0.527450
     51 C17        -8.2360    1.5620    0.2560 c3        1 MOL      0.054574
     52 C18        -8.3750    0.2470   -0.6620 c         1 MOL      0.337182
     53 O9         -9.4690    0.0240   -1.1370 o         1 MOL     -0.572867
     54 H23        -6.2090    1.8030    0.3170 hn        1 MOL      0.318321
     55 H24        -9.0980    2.1530   -0.0300 h1        1 MOL      0.051490
     56 H25        -8.3980    1.2920    1.2960 h1        1 MOL      0.051490
     57 N5         -7.2900   -0.4460   -0.9960 n         1 MOL     -0.014633
     58 C19        -7.3780   -1.6880   -1.8460 c3        1 MOL      0.110969
     59 C20        -7.1420   -2.9080   -0.9250 c         1 MOL      0.339319
     60 O10        -7.2980   -4.0380   -1.4130 o         1 MOL     -0.541096
     61 C21        -6.3700   -1.4700   -3.0380 c3        1 MOL     -0.265200
     62 C22        -4.8840   -1.3600   -2.6580 c         1 MOL      0.837885
     63 O11        -4.0740   -0.8610   -3.3890 o         1 MOL     -0.770881
     64 O12        -4.4530   -1.7160   -1.5590 o         1 MOL     -0.770881
     65 H26        -6.4230   -0.2270   -0.5320 hn        1 MOL      0.001692
     66 H27        -8.3800   -1.7920   -2.2760 h1        1 MOL      0.064016
     67 H28        -6.6990   -0.5540   -3.5230 hc        1 MOL      0.059839
     68 H29        -6.4880   -2.3500   -3.6800 hc        1 MOL      0.059839
     69 N6         -6.6350   -2.7360    0.3170 n         1 MOL     -0.096016
     70 C23        -6.5120   -3.6980    1.3530 c3        1 MOL     -0.163216
     71 C24        -5.2360   -4.5680    1.2190 c         1 MOL      0.612123
     72 O13        -5.2730   -5.7470    1.5710 o         1 MOL     -0.597809
     73 H30        -6.1560   -1.8650    0.4930 hn        1 MOL      0.059852
     74 H31        -7.2950   -4.4410    1.2050 h1        1 MOL      0.071531
     75 H32        -6.6000   -3.2270    2.3370 h1        1 MOL      0.071531
     76 N7         -4.1110   -3.9860    0.8060 n         1 MOL     -0.466991
     77 C25        -2.7730   -4.6150    0.7700 c3        1 MOL      0.009221
     78 C26        -1.7660   -3.4760    1.1270 c         1 MOL      0.627774
     79 O14        -2.0420   -2.2770    0.8980 o         1 MOL     -0.639695
     80 C27        -2.6160   -5.4360   -0.5210 c3        1 MOL      0.038049
     81 C28        -3.1380   -4.8460   -1.9100 c3        1 MOL     -0.256437
     82 C29        -2.2220   -3.7720   -2.5110 c         1 MOL      0.616364
     83 N8         -1.9590   -3.9200   -3.7630 n         1 MOL     -0.759402
     84 O15        -1.6500   -2.8810   -1.8690 o         1 MOL     -0.568099
     85 H33        -4.2290   -3.0640    0.4100 hn        1 MOL      0.371163
     86 H34        -2.7680   -5.3210    1.6000 h1        1 MOL      0.048390
     87 H35        -3.0270   -6.4380   -0.3990 hc        1 MOL      0.010571
     88 H36        -1.5470   -5.6400   -0.5190 hc        1 MOL      0.010571
     89 H37        -4.1920   -4.5710   -1.8950 hc        1 MOL      0.097270
     90 H38        -3.0740   -5.7050   -2.5830 hc        1 MOL      0.097270
     91 H39        -2.3810   -4.6690   -4.2810 hn        1 MOL      0.368594
     92 H40        -1.4050   -3.1800   -4.1680 hn        1 MOL      0.368594
     93 N9         -0.6230   -3.8510    1.5630 n         1 MOL     -0.464718
     94 C30         0.5830   -2.9630    1.7690 c3        1 MOL     -0.014614
     95 C31         1.6500   -3.4790    0.7540 c         1 MOL      0.483476
     96 O16         2.3770   -4.4960    0.9870 o         1 MOL     -0.566119
     97 C32         1.1060   -3.1230    3.2120 c3        1 MOL      0.290256
     98 C33         2.1440   -2.0440    3.5030 c3        1 MOL     -0.334512
     99 C34         0.0600   -2.7930    4.2580 c3        1 MOL     -0.334512
    100 H41        -0.5070   -4.8540    1.5880 hn        1 MOL      0.273471
    101 H42         0.2990   -1.9230    1.5740 h1        1 MOL      0.213597
    102 H43         1.5650   -4.0950    3.4090 hc        1 MOL     -0.027794
    103 H44         3.0020   -2.2190    2.8580 hc        1 MOL      0.068894
    104 H45         1.6970   -1.0940    3.2400 hc        1 MOL      0.068894
    105 H46         2.5020   -2.1020    4.5280 hc        1 MOL      0.068894
    106 H47        -0.3150   -1.7790    4.0880 hc        1 MOL      0.068894
    107 H48        -0.8370   -3.3930    4.1070 hc        1 MOL      0.068894
    108 H49         0.4790   -2.9140    5.2610 hc        1 MOL      0.068894
    109 N10         1.7880   -2.7290   -0.3570 n         1 MOL     -0.384511
    110 C35         2.9460   -2.8170   -1.2510 c3        1 MOL      0.273243
    111 C36         4.2760   -2.2710   -0.5760 c         1 MOL      0.405816
    112 O17         4.1910   -1.6860    0.5490 o         1 MOL     -0.406246
    113 C37         2.6540   -2.2250   -2.6880 c3        1 MOL     -0.441847
    114 C38         2.9900   -0.7660   -3.0040 c         1 MOL      0.612376
    115 N11         2.0600    0.1740   -2.7480 n         1 MOL     -0.771725
    116 O18         4.0570   -0.2970   -3.3540 o         1 MOL     -0.549362
    117 H50         1.1850   -1.9330   -0.4700 hn        1 MOL      0.168121
    118 H51         3.1440   -3.8840   -1.4060 h1        1 MOL      0.017069
    119 H52         1.6180   -2.4480   -2.9430 hc        1 MOL      0.129660
    120 H53         3.2800   -2.7840   -3.3740 hc        1 MOL      0.129660
    121 H54         1.1430   -0.1160   -2.4540 hn        1 MOL      0.394931
    122 H55         2.2970    1.1340   -2.9410 hn        1 MOL      0.394931
    123 N12         5.4070   -2.3010   -1.2510 n         1 MOL     -0.547383
    124 C39         6.6710   -1.9330   -0.6420 c3        1 MOL      0.360459
    125 C40         6.6440   -0.4740   -0.2280 c         1 MOL      0.471995
    126 O19         6.9830   -0.1930    0.9390 o         1 MOL     -0.498553
    127 C41         7.8690   -2.2780   -1.5830 c3        1 MOL     -0.223155
    128 C42         9.2100   -1.8370   -1.0160 ca        1 MOL      0.113016
    129 C43         9.6440   -2.4450    0.2500 ca        1 MOL     -0.245963
    130 C44        10.0740   -1.0000   -1.7680 ca        1 MOL     -0.245963
    131 C45        10.8960   -1.9780    0.8000 ca        1 MOL     -0.230271
    132 C46        11.2870   -0.6720   -1.1500 ca        1 MOL     -0.230271
    133 C47        11.7370   -1.1040    0.1290 ca        1 MOL      0.361245
    134 O20        12.9950   -0.7480    0.5650 oh        1 MOL     -0.530153
    135 H56         5.4640   -2.8050   -2.1220 hn        1 MOL      0.283353
    136 H57         6.8590   -2.5420    0.2430 h1        1 MOL     -0.006518
    137 H58         7.7060   -1.8330   -2.5670 hc        1 MOL      0.065375
    138 H59         7.8540   -3.3580   -1.6790 hc        1 MOL      0.065375
    139 H60         9.0390   -3.1810    0.7690 ha        1 MOL      0.177408
    140 H61         9.8560   -0.6260   -2.7590 ha        1 MOL      0.177408
    141 H62        11.1750   -2.4130    1.7470 ha        1 MOL      0.135652
    142 H63        11.8750    0.0630   -1.6860 ha        1 MOL      0.135652
    143 H64        13.4790   -0.1850   -0.0370 ho        1 MOL      0.369509
    144 N13         6.3160    0.4660   -1.0880 n         1 MOL     -0.282255
    145 C48         6.3480    1.8990   -0.6780 c3        1 MOL     -0.089443
    146 C49         5.5630    2.2400    0.5820 c         1 MOL      0.228463
    147 O21         5.9110    3.1690    1.3530 o         1 MOL     -0.470018
    148 C50         5.7220    2.7990   -1.8290 c3        1 MOL      0.013113
    149 C51         6.4540    2.8190   -3.1600 c3        1 MOL     -0.193396
    150 C52         6.2380    4.0910   -3.9890 c         1 MOL      0.675442
    151 O22         5.2040    4.0930   -4.6930 o         1 MOL     -0.723963
    152 O23         6.9390    5.1190   -3.8900 o         1 MOL     -0.723963
    153 H65         5.8670    0.1550   -1.9340 hn        1 MOL      0.213782
    154 H66         7.3300    2.3200   -0.4830 h1        1 MOL      0.135886
    155 H67         5.6620    3.8210   -1.4600 hc        1 MOL      0.062462
    156 H68         4.7110    2.4700   -2.0700 hc        1 MOL      0.062462
    157 H69         6.0720    1.9360   -3.6720 hc        1 MOL     -0.003949
    158 H70         7.5260    2.6580   -3.0170 hc        1 MOL     -0.003949
    159 N14         4.4580    1.5130    0.8230 n         1 MOL     -0.152782
    160 C53         3.5510    1.8220    1.9190 c3        1 MOL     -0.119315
    161 C54         4.1990    1.2030    3.2080 c         1 MOL      0.428360
    162 O24         4.1270    1.7470    4.3050 o         1 MOL     -0.588154
    163 C55         2.1490    1.1400    1.6780 c3        1 MOL      0.053399
    164 C56         1.5490    1.5590    0.4210 c3        1 MOL     -0.002068
    165 C57         0.2670    0.7810    0.1030 c         1 MOL      0.673601
    166 O25        -0.8330    1.2260    0.3300 o         1 MOL     -0.729272
    167 O26         0.2220   -0.2680   -0.5510 o         1 MOL     -0.729272
    168 H71         4.1190    0.9430    0.0610 hn        1 MOL      0.295138
    169 H72         3.4460    2.9000    2.0650 h1        1 MOL      0.125086
    170 H73         1.5120    1.4040    2.5160 hc        1 MOL      0.050036
    171 H74         2.2280    0.0550    1.7070 hc        1 MOL      0.050036
    172 H75         2.2080    1.4820   -0.4440 hc        1 MOL     -0.019814
    173 H76         1.3960    2.6450    0.4610 hc        1 MOL     -0.019814
    174 N15         4.8990    0.0910    3.0780 n         1 MOL      0.096887
    175 C58         5.6970   -0.6120    4.1070 c3        1 MOL     -0.229160
    176 H77         5.9920    0.0950    4.8820 h1        1 MOL      0.077490
    177 H78         5.0980   -1.4070    4.5510 h1        1 MOL      0.077490
    178 H79         6.5880   -1.0400    3.6460 h1        1 MOL      0.077490
    179 H80         4.9630   -0.2040    2.1160 hn        1 MOL     -0.027700
    180 Ca1        -2.2620   -0.3250   -1.1970 Ca        1 MOL      1.712021
    181 O27        -0.8650   -0.4620   -3.5020 oh        1 MOL     -0.709496
    182 H81        -0.6930    0.4280   -3.7890 ho        1 MOL      0.359054
    183 H82        -0.5640   -1.0060   -4.2370 ho        1 MOL      0.359054
@<TRIPOS>BOND
     1    1    2 1   
     2    1    4 1   
     3    1    5 1   
     4    1    6 1   
     5    2    3 2   
     6    2    7 1   
     7    7    8 1   
     8    7   15 1   
     9    8    9 1   
    10    8   11 1   
    11    8   16 1   
    12    9   10 2   
    13    9   19 1   
    14   11   12 1   
    15   11   17 1   
    16   11   18 1   
    17   12   13 1   
    18   12   14 1   
    19   19   20 1   
    20   19   27 1   
    21   20   21 1   
    22   20   23 1   
    23   20   28 1   
    24   21   22 2   
    25   21   38 1   
    26   23   24 1   
    27   23   25 1   
    28   23   29 1   
    29   24   26 1   
    30   24   30 1   
    31   24   31 1   
    32   25   32 1   
    33   25   33 1   
    34   25   34 1   
    35   26   35 1   
    36   26   36 1   
    37   26   37 1   
    38   38   39 1   
    39   38   46 1   
    40   39   40 1   
    41   39   42 1   
    42   39   47 1   
    43   40   41 2   
    44   40   50 1   
    45   42   43 1   
    46   42   48 1   
    47   42   49 1   
    48   43   44 1   
    49   43   45 1   
    50   50   51 1   
    51   50   54 1   
    52   51   52 1   
    53   51   55 1   
    54   51   56 1   
    55   52   53 2   
    56   52   57 1   
    57   57   58 1   
    58   57   65 1   
    59   58   59 1   
    60   58   61 1   
    61   58   66 1   
    62   59   60 2   
    63   59   69 1   
    64   61   62 1   
    65   61   67 1   
    66   61   68 1   
    67   62   63 1   
    68   62   64 1   
    69   69   70 1   
    70   69   73 1   
    71   70   71 1   
    72   70   74 1   
    73   70   75 1   
    74   71   72 2   
    75   71   76 1   
    76   76   77 1   
    77   76   85 1   
    78   77   78 1   
    79   77   80 1   
    80   77   86 1   
    81   78   79 2   
    82   78   93 1   
    83   80   81 1   
    84   80   87 1   
    85   80   88 1   
    86   81   82 1   
    87   81   89 1   
    88   81   90 1   
    89   82   83 1   
    90   82   84 2   
    91   83   91 1   
    92   83   92 1   
    93   93   94 1   
    94   93  100 1   
    95   94   95 1   
    96   94   97 1   
    97   94  101 1   
    98   95   96 2   
    99   95  109 1   
   100   97   98 1   
   101   97   99 1   
   102   97  102 1   
   103   98  103 1   
   104   98  104 1   
   105   98  105 1   
   106   99  106 1   
   107   99  107 1   
   108   99  108 1   
   109  109  110 1   
   110  109  117 1   
   111  110  111 1   
   112  110  113 1   
   113  110  118 1   
   114  111  112 2   
   115  111  123 1   
   116  113  114 1   
   117  113  119 1   
   118  113  120 1   
   119  114  115 1   
   120  114  116 2   
   121  115  121 1   
   122  115  122 1   
   123  123  124 1   
   124  123  135 1   
   125  124  125 1   
   126  124  127 1   
   127  124  136 1   
   128  125  126 2   
   129  125  144 1   
   130  127  128 1   
   131  127  137 1   
   132  127  138 1   
   133  128  129 ar  
   134  128  130 ar  
   135  129  131 ar  
   136  129  139 1   
   137  130  132 ar  
   138  130  140 1   
   139  131  133 ar  
   140  131  141 1   
   141  132  133 ar  
   142  132  142 1   
   143  133  134 1   
   144  134  143 1   
   145  144  145 1   
   146  144  153 1   
   147  145  146 1   
   148  145  148 1   
   149  145  154 1   
   150  146  147 2   
   151  146  159 1   
   152  148  149 1   
   153  148  155 1   
   154  148  156 1   
   155  149  150 1   
   156  149  157 1   
   157  149  158 1   
   158  150  151 1   
   159  150  152 1   
   160  159  160 1   
   161  159  168 1   
   162  160  161 1   
   163  160  163 1   
   164  160  169 1   
   165  161  162 2   
   166  161  174 1   
   167  163  164 1   
   168  163  170 1   
   169  163  171 1   
   170  164  165 1   
   171  164  172 1   
   172  164  173 1   
   173  165  166 1   
   174  165  167 1   
   175  174  175 1   
   176  174  179 1   
   177  175  176 1   
   178  175  177 1   
   179  175  178 1   
   180  181  182 1   
   181  181  183 1   
@<TRIPOS>SUBSTRUCTURE
     1 MOL         1 TEMP              0 ****  ****    0 ROOT
