@<TRIPOS>MOLECULE
MOL
  179   176     1     0     0
SMALL
resp


@<TRIPOS>ATOM
      1 C1          1.4290    3.2400    6.7420 c3        1 MOL     -0.277118
      2 C2          1.3160    2.9770    5.2400 c         1 MOL      0.741357
      3 O1          2.0050    2.1000    4.7640 o         1 MOL     -0.562809
      4 H1          0.4430    3.1650    7.1990 hc        1 MOL      0.069295
      5 H2          2.0940    2.5020    7.1920 hc        1 MOL      0.069295
      6 H3          1.8300    4.2400    6.9080 hc        1 MOL      0.069295
      7 N1          0.4150    3.6520    4.4980 n         1 MOL     -0.614467
      8 C3          0.0160    3.3340    3.0570 c3        1 MOL      0.154539
      9 C4         -0.2370    4.6110    2.2540 c         1 MOL      0.391464
     10 O2         -0.8210    5.5790    2.6620 o         1 MOL     -0.472864
     11 C5         -1.1580    2.3670    2.9040 c3        1 MOL     -0.130057
     12 C6         -1.3730    1.7890    1.5220 c         1 MOL      0.557382
     13 O3         -2.4080    1.1180    1.2680 o         1 MOL     -0.714437
     14 O4         -0.5520    1.9660    0.5990 o         1 MOL     -0.714437
     15 H4         -0.1260    4.3310    5.0180 hn        1 MOL      0.297765
     16 H5          0.8250    2.8630    2.4950 h1        1 MOL     -0.000181
     17 H6         -2.0030    2.9720    3.2410 hc        1 MOL      0.074100
     18 H7         -1.0430    1.6150    3.6790 hc        1 MOL      0.074100
     19 N2          0.0760    4.5990    0.9240 n         1 MOL     -0.242937
     20 C7          0.1050    5.7390   -0.0200 c3        1 MOL     -0.111173
     21 C8         -1.2400    6.0700   -0.5360 c         1 MOL      0.498983
     22 O5         -1.7290    7.1590   -0.4540 o         1 MOL     -0.553834
     23 C9          1.1610    5.5120   -1.1680 c3        1 MOL     -0.031536
     24 C10         2.5870    5.2430   -0.6550 c3        1 MOL     -0.084580
     25 C11         3.6900    5.8300   -1.5780 c3        1 MOL      0.103046
     26 C12         3.6170    5.3920   -3.0350 c3        1 MOL      0.100575
     27 N3          4.8080    5.9050   -3.7930 n4        1 MOL     -0.448582
     28 H8          0.4170    3.7250    0.5450 hn        1 MOL      0.311632
     29 H9          0.2700    6.6660    0.5310 h1        1 MOL      0.105059
     30 H10         1.0880    6.3640   -1.8450 hc        1 MOL      0.026813
     31 H11         0.8010    4.7260   -1.8280 hc        1 MOL      0.026813
     32 H12         2.6310    4.1750   -0.4610 hc        1 MOL      0.051831
     33 H13         2.7430    5.6980    0.3210 hc        1 MOL      0.051831
     34 H14         4.6660    5.5880   -1.1560 hc        1 MOL     -0.004791
     35 H15         3.5850    6.9090   -1.4820 hc        1 MOL     -0.004791
     36 H16         2.6790    5.8650   -3.3200 hx        1 MOL      0.062013
     37 H17         3.5110    4.3050   -2.9890 hx        1 MOL      0.062013
     38 H18         4.9500    6.9010   -3.7720 hn        1 MOL      0.345824
     39 H19         5.6220    5.3950   -3.4680 hn        1 MOL      0.345824
     40 H20         4.7410    5.7460   -4.7890 hn        1 MOL      0.345824
     41 N4         -2.0630    5.0650   -0.8500 n         1 MOL     -0.313019
     42 C13        -3.4190    5.2120   -1.3900 c3        1 MOL      0.194575
     43 C14        -4.6030    4.7910   -0.4290 c         1 MOL      0.420803
     44 O6         -5.6590    5.4030   -0.5380 o         1 MOL     -0.514064
     45 C15        -3.5230    4.5210   -2.7720 c3        1 MOL     -0.319227
     46 C16        -3.1810    3.0160   -2.7430 c         1 MOL      0.775209
     47 O7         -3.3590    2.4380   -3.8260 o         1 MOL     -0.670843
     48 O8         -2.7280    2.4250   -1.6620 o         1 MOL     -0.670843
     49 H21        -1.6160    4.1690   -0.6980 hn        1 MOL      0.152796
     50 H22        -3.7460    6.2200   -1.6390 h1        1 MOL      0.060643
     51 H23        -2.7920    5.0480   -3.3850 hc        1 MOL      0.079624
     52 H24        -4.5200    4.7540   -3.1470 hc        1 MOL      0.079624
     53 N5         -4.2950    3.8040    0.4720 n         1 MOL     -0.209735
     54 C17        -5.2050    3.2760    1.4820 c3        1 MOL     -0.144491
     55 C18        -6.1700    2.1570    1.0160 c         1 MOL      0.541272
     56 O9         -7.2160    1.8520    1.5870 o         1 MOL     -0.586432
     57 H25        -3.3480    3.4580    0.4030 hn        1 MOL      0.210502
     58 H26        -5.8730    4.0160    1.9060 h1        1 MOL      0.085091
     59 H27        -4.4860    2.8840    2.2080 h1        1 MOL      0.085091
     60 N6         -5.7160    1.4850   -0.0170 n         1 MOL     -0.053118
     61 C19        -6.4360    0.4130   -0.7300 c3        1 MOL     -0.301086
     62 C20        -6.6430   -0.9900   -0.0810 c         1 MOL      0.400265
     63 O10        -7.0680   -1.9500   -0.7170 o         1 MOL     -0.437432
     64 C21        -5.6870    0.4150   -2.0820 c3        1 MOL     -0.082896
     65 C22        -4.5980   -0.6100   -2.1350 c         1 MOL      0.575635
     66 N7         -4.4980   -1.4140   -3.1670 n         1 MOL     -0.774025
     67 O11        -3.7760   -0.6140   -1.2040 o         1 MOL     -0.512809
     68 H28        -4.7620    1.7300   -0.2420 hn        1 MOL      0.009833
     69 H29        -7.4580    0.7480   -0.9280 h1        1 MOL      0.184241
     70 H30        -5.4320    1.4470   -2.3050 hc        1 MOL      0.070154
     71 H31        -6.3330    0.1460   -2.9280 hc        1 MOL      0.070154
     72 H32        -5.1590   -1.3980   -3.9340 hn        1 MOL      0.379094
     73 H33        -3.8190   -2.1560   -3.0790 hn        1 MOL      0.379094
     74 N8         -6.2120   -1.1300    1.1810 n         1 MOL     -0.212470
     75 C23        -6.2160   -2.4580    1.9040 c3        1 MOL     -0.379553
     76 C24        -5.0700   -3.3880    1.8260 c         1 MOL      0.696661
     77 O12        -5.2320   -4.4640    2.3450 o         1 MOL     -0.557079
     78 H34        -5.7590   -0.3590    1.6540 hn        1 MOL      0.300326
     79 H35        -7.1440   -2.9930    1.6940 h1        1 MOL      0.163203
     80 H36        -6.2390   -2.0850    2.9250 h1        1 MOL      0.163203
     81 N9         -3.9330   -3.0080    1.1760 n         1 MOL     -0.384888
     82 C25        -2.6710   -3.7390    1.0370 c3        1 MOL      0.195810
     83 C26        -1.4800   -2.8550    1.1610 c         1 MOL      0.213546
     84 O13        -1.5280   -1.7180    0.7220 o         1 MOL     -0.354289
     85 C27        -2.5910   -4.4130   -0.3430 c3        1 MOL      0.368131
     86 C28        -3.7820   -5.3000   -0.6410 ca        1 MOL     -0.299247
     87 C29        -4.9600   -4.8060   -1.1640 ca        1 MOL     -0.000994
     88 C30        -3.8170   -6.6610   -0.2090 ca        1 MOL     -0.000994
     89 C31        -6.1630   -5.5250   -1.3680 ca        1 MOL     -0.331909
     90 C32        -4.9480   -7.4280   -0.4880 ca        1 MOL     -0.331909
     91 C33        -6.1170   -6.8440   -1.0200 ca        1 MOL      0.421856
     92 O14        -7.2970   -7.4960   -1.0520 oh        1 MOL     -0.482344
     93 H37        -3.9140   -2.0280    0.9470 hn        1 MOL      0.152579
     94 H38        -2.7010   -4.4850    1.8190 h1        1 MOL      0.005530
     95 H39        -1.7260   -5.0740   -0.3290 hc        1 MOL     -0.074331
     96 H40        -2.4190   -3.7030   -1.1530 hc        1 MOL     -0.074331
     97 H41        -4.9180   -3.7700   -1.4750 ha        1 MOL      0.085066
     98 H42        -2.9640   -7.0720    0.3020 ha        1 MOL      0.085066
     99 H43        -7.0750   -4.9940   -1.6110 ha        1 MOL      0.150755
    100 H44        -5.0420   -8.4560   -0.1800 ha        1 MOL      0.150755
    101 H45        -7.2620   -8.4270   -0.8140 ho        1 MOL      0.351530
    102 N10        -0.3500   -3.4270    1.5370 n         1 MOL     -0.213941
    103 C34         0.9530   -2.7710    1.4050 c3        1 MOL     -0.410979
    104 C35         1.9350   -3.7180    0.7550 c         1 MOL      0.475342
    105 O15         2.1280   -4.8090    1.2680 o         1 MOL     -0.543494
    106 C36         1.5550   -1.9080    2.5630 c3        1 MOL      0.414864
    107 C37         1.6840   -2.7220    3.8510 c3        1 MOL     -0.008732
    108 C38         0.7020   -0.6070    2.6430 c3        1 MOL     -0.525057
    109 C39         2.4750   -2.0400    4.9450 c3        1 MOL     -0.279678
    110 H46        -0.3880   -4.3340    1.9670 hn        1 MOL      0.260426
    111 H47         0.8120   -1.9900    0.6450 h1        1 MOL      0.208761
    112 H48         2.5670   -1.6050    2.2850 hc        1 MOL     -0.064572
    113 H49         2.2660   -3.6170    3.6590 hc        1 MOL      0.022748
    114 H50         0.6820   -2.9390    4.2160 hc        1 MOL      0.022748
    115 H51        -0.2860   -0.8470    3.0280 hc        1 MOL      0.139792
    116 H52         1.1730    0.1350    3.2920 hc        1 MOL      0.139792
    117 H53         0.5930   -0.2680    1.6110 hc        1 MOL      0.139792
    118 H54         3.1340   -1.4670    4.2840 hc        1 MOL      0.072792
    119 H55         1.9630   -1.2210    5.4500 hc        1 MOL      0.072792
    120 H56         2.9900   -2.7370    5.6000 hc        1 MOL      0.072792
    121 N11         2.5870   -3.2280   -0.2420 n         1 MOL     -0.170490
    122 C40         3.7360   -4.0060   -0.8720 c3        1 MOL     -0.023667
    123 C41         5.0600   -3.6570   -0.3380 c         1 MOL      0.418862
    124 O16         5.1780   -2.6320    0.3420 o         1 MOL     -0.330920
    125 C42         3.7830   -3.6290   -2.3610 c3        1 MOL     -0.048085
    126 O17         3.8400   -2.2750   -2.6240 oh        1 MOL     -0.357296
    127 H57         2.3370   -2.2950   -0.5300 hn        1 MOL      0.118824
    128 H58         3.5600   -5.0730   -0.7500 h1        1 MOL      0.096765
    129 H59         2.9650   -4.0460   -2.9540 h1        1 MOL      0.044530
    130 H60         4.7000   -4.0900   -2.7510 h1        1 MOL      0.044530
    131 H61         3.6880   -2.1850   -3.5600 ho        1 MOL      0.366012
    132 N12         6.0970   -4.4270   -0.5600 n         1 MOL     -0.392273
    133 C43         7.4600   -4.0740   -0.0850 c3        1 MOL      0.103477
    134 C44         8.0380   -2.7040   -0.6340 c         1 MOL      0.522496
    135 O18         8.9310   -2.2070    0.0540 o         1 MOL     -0.510238
    136 C45         8.3150   -5.3650   -0.1760 c3        1 MOL     -0.444985
    137 H62         5.8810   -5.2940   -1.0320 hn        1 MOL      0.274838
    138 H63         7.3070   -3.9180    0.9860 h1        1 MOL      0.096010
    139 H64         9.1240   -5.2700    0.5390 hc        1 MOL      0.141362
    140 H65         7.6780   -6.1490    0.2190 hc        1 MOL      0.141362
    141 H66         8.6500   -5.5330   -1.1940 hc        1 MOL      0.141362
    142 N13         7.5300   -2.1390   -1.7520 n         1 MOL     -0.482781
    143 C46         7.9220   -0.7440   -2.0490 c3        1 MOL      0.151474
    144 C47         7.1390    0.3490   -1.2350 c         1 MOL      0.336657
    145 O19         7.6900    1.1950   -0.5480 o         1 MOL     -0.465704
    146 C48         7.9400   -0.5450   -3.4990 c3        1 MOL     -0.133660
    147 H67         6.8130   -2.6050   -2.3030 hn        1 MOL      0.281603
    148 H68         8.9640   -0.6730   -1.7250 h1        1 MOL      0.091911
    149 H69         6.8990   -0.5770   -3.8330 hc        1 MOL      0.032514
    150 H70         8.3010    0.4650   -3.6730 hc        1 MOL      0.032514
    151 H71         8.4310   -1.2090   -4.2050 hc        1 MOL      0.032514
    152 N14         5.7980    0.1530   -1.1070 n         1 MOL     -0.095556
    153 C49         5.0040    0.9740   -0.2130 c3        1 MOL     -0.301346
    154 C50         5.3670    0.8620    1.2760 c         1 MOL      0.405392
    155 O20         5.3360    1.8830    2.0240 o         1 MOL     -0.533266
    156 C51         3.4870    0.6720   -0.3850 c3        1 MOL     -0.074877
    157 C52         2.9780    0.9920   -1.7670 c3        1 MOL     -0.142442
    158 C53         1.5310    0.7410   -1.8650 c         1 MOL      0.665582
    159 O21         0.7160    1.5010   -2.5060 o         1 MOL     -0.715343
    160 O22         1.0630   -0.3050   -1.3150 o         1 MOL     -0.715343
    161 H72         5.2490   -0.4740   -1.6760 hn        1 MOL      0.111570
    162 H73         5.2020    1.9950   -0.5280 h1        1 MOL      0.136018
    163 H74         2.9550    1.2100    0.3990 hc        1 MOL      0.106315
    164 H75         3.2540   -0.3650   -0.1540 hc        1 MOL      0.106315
    165 H76         3.5010    0.4700   -2.5770 hc        1 MOL      0.017734
    166 H77         3.2130    2.0390   -2.0080 hc        1 MOL      0.017734
    167 N15         5.7620   -0.3300    1.7480 n         1 MOL      0.101037
    168 C54         6.2350   -0.4030    3.1460 c3        1 MOL     -0.249391
    169 H78         5.8260    0.4340    3.7110 h1        1 MOL      0.091206
    170 H79         5.9020   -1.3400    3.5930 h1        1 MOL      0.091206
    171 H80         7.3240   -0.3570    3.1660 h1        1 MOL      0.091206
    172 H81         5.7090   -1.1800    1.2050 hn        1 MOL      0.011147
    173 Ca1        -1.4070    0.2530   -1.0490 Ca        1 MOL      1.681862
    174 O23        -1.8730    0.3350   -3.9480 oh        1 MOL     -0.757036
    175 H82        -2.6400    0.8610   -4.1980 ho        1 MOL      0.362543
    176 H83        -1.8550   -0.3810   -4.5860 ho        1 MOL      0.362543
    177 O24        -1.2970   -1.9780   -2.4210 oh        1 MOL     -0.757036
    178 H84        -1.1660   -1.7650   -3.3410 ho        1 MOL      0.362543
    179 H85        -0.7140   -2.7190   -2.2590 ho        1 MOL      0.362543
@<TRIPOS>BOND
     1    1    2 1   
     2    1    4 1   
     3    1    5 1   
     4    1    6 1   
     5    2    3 2   
     6    2    7 1   
     7    7    8 1   
     8    7   15 1   
     9    8    9 1   
    10    8   11 1   
    11    8   16 1   
    12    9   10 2   
    13    9   19 1   
    14   11   12 1   
    15   11   17 1   
    16   11   18 1   
    17   12   13 1   
    18   12   14 1   
    19   19   20 1   
    20   19   28 1   
    21   20   21 1   
    22   20   23 1   
    23   20   29 1   
    24   21   22 2   
    25   21   41 1   
    26   23   24 1   
    27   23   30 1   
    28   23   31 1   
    29   24   25 1   
    30   24   32 1   
    31   24   33 1   
    32   25   26 1   
    33   25   34 1   
    34   25   35 1   
    35   26   27 1   
    36   26   36 1   
    37   26   37 1   
    38   27   38 1   
    39   27   39 1   
    40   27   40 1   
    41   41   42 1   
    42   41   49 1   
    43   42   43 1   
    44   42   45 1   
    45   42   50 1   
    46   43   44 2   
    47   43   53 1   
    48   45   46 1   
    49   45   51 1   
    50   45   52 1   
    51   46   47 1   
    52   46   48 1   
    53   53   54 1   
    54   53   57 1   
    55   54   55 1   
    56   54   58 1   
    57   54   59 1   
    58   55   56 2   
    59   55   60 1   
    60   60   61 1   
    61   60   68 1   
    62   61   62 1   
    63   61   64 1   
    64   61   69 1   
    65   62   63 2   
    66   62   74 1   
    67   64   65 1   
    68   64   70 1   
    69   64   71 1   
    70   65   66 1   
    71   65   67 2   
    72   66   72 1   
    73   66   73 1   
    74   74   75 1   
    75   74   78 1   
    76   75   76 1   
    77   75   79 1   
    78   75   80 1   
    79   76   77 2   
    80   76   81 1   
    81   81   82 1   
    82   81   93 1   
    83   82   83 1   
    84   82   85 1   
    85   82   94 1   
    86   83   84 2   
    87   83  102 1   
    88   85   86 1   
    89   85   95 1   
    90   85   96 1   
    91   86   87 ar  
    92   86   88 ar  
    93   87   89 ar  
    94   87   97 1   
    95   88   90 ar  
    96   88   98 1   
    97   89   91 ar  
    98   89   99 1   
    99   90   91 ar  
   100   90  100 1   
   101   91   92 1   
   102   92  101 1   
   103  102  103 1   
   104  102  110 1   
   105  103  104 1   
   106  103  106 1   
   107  103  111 1   
   108  104  105 2   
   109  104  121 1   
   110  106  107 1   
   111  106  108 1   
   112  106  112 1   
   113  107  109 1   
   114  107  113 1   
   115  107  114 1   
   116  108  115 1   
   117  108  116 1   
   118  108  117 1   
   119  109  118 1   
   120  109  119 1   
   121  109  120 1   
   122  121  122 1   
   123  121  127 1   
   124  122  123 1   
   125  122  125 1   
   126  122  128 1   
   127  123  124 2   
   128  123  132 1   
   129  125  126 1   
   130  125  129 1   
   131  125  130 1   
   132  126  131 1   
   133  132  133 1   
   134  132  137 1   
   135  133  134 1   
   136  133  136 1   
   137  133  138 1   
   138  134  135 2   
   139  134  142 1   
   140  136  139 1   
   141  136  140 1   
   142  136  141 1   
   143  142  143 1   
   144  142  147 1   
   145  143  144 1   
   146  143  146 1   
   147  143  148 1   
   148  144  145 2   
   149  144  152 1   
   150  146  149 1   
   151  146  150 1   
   152  146  151 1   
   153  152  153 1   
   154  152  161 1   
   155  153  154 1   
   156  153  156 1   
   157  153  162 1   
   158  154  155 2   
   159  154  167 1   
   160  156  157 1   
   161  156  163 1   
   162  156  164 1   
   163  157  158 1   
   164  157  165 1   
   165  157  166 1   
   166  158  159 1   
   167  158  160 1   
   168  167  168 1   
   169  167  172 1   
   170  168  169 1   
   171  168  170 1   
   172  168  171 1   
   173  174  175 1   
   174  174  176 1   
   175  177  178 1   
   176  177  179 1   
@<TRIPOS>SUBSTRUCTURE
     1 MOL         1 TEMP              0 ****  ****    0 ROOT
