@<TRIPOS>MOLECULE
MOL
  175   173     1     0     0
SMALL
resp


@<TRIPOS>ATOM
      1 C1         -0.7580   -4.0670    5.7220 c3        1 MOL     -0.334789
      2 C2         -0.4050   -3.9090    4.2910 c         1 MOL      0.762851
      3 O1         -1.2310   -4.1240    3.4670 o         1 MOL     -0.563543
      4 H1         -0.0750   -4.7760    6.1880 hc        1 MOL      0.072746
      5 H2         -0.6790   -3.1030    6.2250 hc        1 MOL      0.072746
      6 H3         -1.7790   -4.4390    5.8060 hc        1 MOL      0.072746
      7 N1          0.8840   -3.5680    4.0350 n         1 MOL     -0.630394
      8 C3          1.4870   -3.4360    2.7230 c3        1 MOL      0.119148
      9 C4          1.4550   -4.7240    1.8240 c         1 MOL      0.682738
     10 O2          1.5120   -5.8290    2.3990 o         1 MOL     -0.586378
     11 C5          2.9050   -2.9270    3.0630 c3        1 MOL     -0.504086
     12 C6          3.8150   -2.3560    2.0170 c         1 MOL      0.924511
     13 O3          3.4260   -2.1410    0.8470 o         1 MOL     -0.724864
     14 O4          5.0550   -2.2480    2.3040 o         1 MOL     -0.724864
     15 H4          1.5450   -3.3630    4.7770 hn        1 MOL      0.318073
     16 H5          1.0110   -2.5900    2.2210 h1        1 MOL      0.096862
     17 H6          3.4520   -3.8110    3.3730 hc        1 MOL      0.110667
     18 H7          2.9000   -2.1580    3.8310 hc        1 MOL      0.110667
     19 N2          1.5890   -4.4920    0.5160 n         1 MOL     -0.656000
     20 C7          1.7100   -5.5380   -0.4960 c3        1 MOL      0.251697
     21 C8          2.8890   -5.2110   -1.5050 c         1 MOL      0.366964
     22 O5          3.0730   -6.1430   -2.3650 o         1 MOL     -0.569065
     23 C9          0.2530   -5.5080   -1.0760 c3        1 MOL     -0.133963
     24 H8          1.6390   -3.5460    0.1720 hn        1 MOL      0.377815
     25 H9          1.8800   -6.5410   -0.1160 h1        1 MOL      0.032056
     26 H10        -0.0300   -4.5020   -1.3910 hc        1 MOL      0.031525
     27 H11         0.1060   -6.2330   -1.8790 hc        1 MOL      0.031525
     28 H12        -0.4080   -5.7910   -0.2620 hc        1 MOL      0.031525
     29 N3          3.5580   -4.0910   -1.4350 n         1 MOL     -0.165678
     30 C10         4.7470   -3.8060   -2.3130 c3        1 MOL      0.037985
     31 C11         6.0490   -3.1720   -1.6880 c         1 MOL      0.315501
     32 O6          7.0790   -3.3750   -2.3170 o         1 MOL     -0.531764
     33 C12         4.2710   -2.8450   -3.4360 c3        1 MOL     -0.152920
     34 C13         3.2480   -1.8010   -2.9510 c         1 MOL      0.609214
     35 O7          2.1140   -1.6750   -3.4670 o         1 MOL     -0.621193
     36 O8          3.6700   -0.9610   -2.0880 o         1 MOL     -0.621193
     37 H13         3.3110   -3.3340   -0.8150 hn        1 MOL      0.146713
     38 H14         5.0660   -4.7930   -2.6620 h1        1 MOL      0.083596
     39 H15         3.7690   -3.4550   -4.1830 hc        1 MOL      0.044412
     40 H16         5.0700   -2.3180   -3.9490 hc        1 MOL      0.044412
     41 N4          6.0350   -2.2100   -0.7350 n         1 MOL      0.042434
     42 C14         7.2490   -1.5070   -0.2590 c3        1 MOL     -0.163374
     43 C15         7.5250   -0.1800   -0.9690 c         1 MOL      0.508661
     44 O9          8.6590    0.2790   -0.9940 o         1 MOL     -0.587748
     45 H17         5.1640   -1.9160   -0.3000 hn        1 MOL     -0.057504
     46 H18         8.1260   -2.1430   -0.3130 h1        1 MOL      0.089243
     47 H19         7.0740   -1.2300    0.7790 h1        1 MOL      0.089243
     48 N5          6.4620    0.4130   -1.5310 n         1 MOL     -0.105918
     49 C16         6.5400    1.8140   -1.9850 c3        1 MOL     -0.262954
     50 C17         6.4810    3.0040   -0.9590 c         1 MOL      0.505423
     51 O10         6.6650    4.1340   -1.2750 o         1 MOL     -0.517964
     52 C18         5.5150    2.0370   -3.0830 c3        1 MOL     -0.050546
     53 C19         4.0420    1.9770   -2.5650 c         1 MOL      0.370361
     54 N6          3.0250    1.9540   -3.4300 n         1 MOL     -0.519972
     55 O11         3.7870    1.9460   -1.4030 o         1 MOL     -0.264362
     56 H20         5.5660   -0.0460   -1.6100 hn        1 MOL      0.115311
     57 H21         7.4780    1.7510   -2.5480 h1        1 MOL      0.137417
     58 H22         5.5470    1.2110   -3.7990 hc        1 MOL      0.051156
     59 H23         5.6660    2.9710   -3.6280 hc        1 MOL      0.051156
     60 H24         3.2530    2.2180   -4.3720 hn        1 MOL      0.280251
     61 H25         2.0710    1.8190   -3.1280 hn        1 MOL      0.280251
     62 N7          6.3640    2.6370    0.2910 n         1 MOL     -0.134678
     63 C20         6.5030    3.4710    1.5470 c3        1 MOL     -0.339252
     64 C21         5.1730    4.2490    1.8830 c         1 MOL      0.523017
     65 O12         5.1240    5.1280    2.8320 o         1 MOL     -0.587186
     66 H26         6.4180    1.6390    0.4630 hn        1 MOL      0.197950
     67 H27         7.2950    4.2020    1.3820 h1        1 MOL      0.152506
     68 H28         6.7310    2.8350    2.4070 h1        1 MOL      0.152506
     69 N8          4.0890    3.9360    1.1890 n         1 MOL     -0.162181
     70 C22         2.7230    4.5840    1.2250 c3        1 MOL     -0.224411
     71 C23         1.4930    3.6000    1.2700 c         1 MOL      0.754851
     72 O13         1.6950    2.4770    0.9290 o         1 MOL     -0.631074
     73 C24         2.5550    5.5080    0.0020 c3        1 MOL      0.696350
     74 C25         3.3090    6.8030    0.0000 c3        1 MOL     -0.352256
     75 O14         2.8200    4.9390   -1.2450 oh        1 MOL     -0.614474
     76 H29         4.2910    3.2000    0.5240 hn        1 MOL      0.020236
     77 H30         2.6810    5.1730    2.1370 h1        1 MOL      0.080398
     78 H31         1.5140    5.8310   -0.0790 h1        1 MOL     -0.077753
     79 H32         2.4980    4.0330   -1.2410 ho        1 MOL      0.299744
     80 H33         2.9260    7.3550    0.8560 hc        1 MOL      0.068702
     81 H34         4.3240    6.6300    0.3450 hc        1 MOL      0.068702
     82 H35         3.1760    7.3630   -0.9190 hc        1 MOL      0.068702
     83 N9          0.3400    4.0480    1.7490 n         1 MOL     -0.699169
     84 C26        -0.9430    3.2860    1.6260 c3        1 MOL      0.022716
     85 C27        -1.3910    3.3660    0.1570 c         1 MOL      0.610207
     86 O15        -1.4290    4.4010   -0.4040 o         1 MOL     -0.557079
     87 C28        -2.0590    3.6200    2.6660 c3        1 MOL      0.276882
     88 C29        -1.4780    4.3730    3.8410 c3        1 MOL     -0.013933
     89 C30        -2.7530    2.3240    3.1000 c3        1 MOL     -0.218299
     90 C31        -2.4450    5.0410    4.8510 c3        1 MOL     -0.097158
     91 H36         0.3320    5.0260    2.0030 hn        1 MOL      0.292326
     92 H37        -0.6870    2.2390    1.7970 h1        1 MOL      0.178036
     93 H38        -2.8760    4.1440    2.1890 hc        1 MOL     -0.050854
     94 H39        -0.9240    5.2010    3.3830 hc        1 MOL     -0.008954
     95 H40        -0.8290    3.6310    4.2900 hc        1 MOL     -0.008954
     96 H41        -3.4840    2.5190    3.8770 hc        1 MOL      0.037298
     97 H42        -3.2210    1.8760    2.2220 hc        1 MOL      0.037298
     98 H43        -2.0170    1.5500    3.3180 hc        1 MOL      0.037298
     99 H44        -3.2390    5.4740    4.2410 hc        1 MOL      0.022925
    100 H45        -2.8820    4.2440    5.4530 hc        1 MOL      0.022925
    101 H46        -2.0690    5.7880    5.5510 hc        1 MOL      0.022925
    102 N10        -1.6980    2.1200   -0.3070 n         1 MOL     -0.279039
    103 C32        -2.5310    1.8600   -1.5040 c3        1 MOL     -0.007151
    104 C33        -3.9820    1.4200   -1.1510 c         1 MOL      0.437489
    105 O16        -4.2650    0.9430   -0.0330 o         1 MOL     -0.361350
    106 C34        -1.7590    0.8690   -2.3760 c3        1 MOL     -0.299186
    107 C35        -0.3000    1.2390   -2.6710 c         1 MOL      0.832856
    108 O17         0.6530    1.0020   -1.9610 o         1 MOL     -0.708116
    109 O18        -0.0680    1.6450   -3.8460 o         1 MOL     -0.708116
    110 H47        -1.5060    1.2700    0.2080 hn        1 MOL     -0.049131
    111 H48        -2.5810    2.7950   -2.0690 h1        1 MOL      0.076292
    112 H49        -2.3080    0.7900   -3.3140 hc        1 MOL      0.096003
    113 H50        -1.8030   -0.1000   -1.8870 hc        1 MOL      0.096003
    114 N11        -4.9710    1.5530   -2.0470 n         1 MOL     -0.582589
    115 C36        -6.3710    1.2180   -1.7010 c3        1 MOL      0.381367
    116 C37        -6.5960   -0.1980   -1.0720 c         1 MOL      0.343027
    117 O19        -7.1800   -0.3210    0.0130 o         1 MOL     -0.528617
    118 C38        -7.2970    1.7450   -2.7720 c3        1 MOL     -0.250570
    119 C39        -8.7980    1.7270   -2.4400 ca        1 MOL      0.148582
    120 C40        -9.2580    2.7810   -1.7260 ca        1 MOL     -0.220321
    121 C41        -9.6150    0.6630   -2.7140 ca        1 MOL     -0.220321
    122 C42       -10.5730    2.7340   -1.2030 ca        1 MOL     -0.035951
    123 C43       -10.9770    0.6330   -2.3500 ca        1 MOL     -0.035951
    124 C44       -11.5000    1.6970   -1.6260 ca        1 MOL     -0.176841
    125 H51        -4.7840    1.9660   -2.9550 hn        1 MOL      0.320033
    126 H52        -6.4740    1.8560   -0.8200 h1        1 MOL      0.031724
    127 H53        -7.1580    1.0510   -3.6050 hc        1 MOL      0.072057
    128 H54        -7.0490    2.7460   -3.1210 hc        1 MOL      0.072057
    129 H55        -8.5930    3.5670   -1.4060 ha        1 MOL      0.127249
    130 H56        -9.2050   -0.0870   -3.3650 ha        1 MOL      0.127249
    131 H57       -10.8630    3.6210   -0.6670 ha        1 MOL      0.092042
    132 H58       -11.6730   -0.1250   -2.6870 ha        1 MOL      0.092042
    133 H59       -12.5730    1.8030   -1.4860 ha        1 MOL      0.115218
    134 N12        -6.0220   -1.2710   -1.6050 n         1 MOL     -0.108248
    135 C45        -6.2220   -2.6320   -1.0800 c3        1 MOL      0.169142
    136 C46        -5.5570   -2.8620    0.2810 c         1 MOL      0.268680
    137 O20        -5.8820   -3.7430    0.9920 o         1 MOL     -0.495488
    138 C47        -5.7500   -3.5960   -2.1260 c3        1 MOL     -0.271389
    139 C48        -5.5130   -2.6830   -3.4350 c3        1 MOL      0.308648
    140 C49        -5.3190   -1.3380   -2.8800 c3        1 MOL     -0.221199
    141 H60        -7.2930   -2.7270   -0.9200 h1        1 MOL      0.049086
    142 H61        -4.7610   -3.9740   -1.8620 hc        1 MOL      0.081119
    143 H62        -6.5080   -4.3690   -2.1850 hc        1 MOL      0.081119
    144 H63        -4.8110   -3.0960   -4.1640 hc        1 MOL     -0.048723
    145 H64        -6.4590   -2.7690   -3.9620 hc        1 MOL     -0.048723
    146 H65        -4.2370   -1.2230   -2.7960 h1        1 MOL      0.058913
    147 H66        -5.7750   -0.6630   -3.6140 h1        1 MOL      0.058913
    148 N13        -4.6880   -1.9520    0.6760 n         1 MOL      0.000986
    149 C50        -3.9670   -1.9980    1.9980 c3        1 MOL     -0.170278
    150 C51        -4.7900   -1.1680    3.0090 c         1 MOL      0.447744
    151 O21        -4.7480   -1.4740    4.2420 o         1 MOL     -0.556897
    152 C52        -2.5680   -1.3240    1.8370 c3        1 MOL      0.018823
    153 C53        -1.9000   -1.7980    0.5480 c3        1 MOL      0.041469
    154 C54        -0.4720   -1.3240    0.3940 c         1 MOL      0.447655
    155 O22         0.4980   -1.9870   -0.1200 o         1 MOL     -0.631026
    156 O23        -0.2590   -0.1720    0.8250 o         1 MOL     -0.631026
    157 H67        -4.2240   -1.3470    0.0100 hn        1 MOL      0.105855
    158 H68        -3.8230   -3.0390    2.3010 h1        1 MOL      0.135538
    159 H69        -1.9450   -1.4920    2.7140 hc        1 MOL      0.027959
    160 H70        -2.8130   -0.2680    1.8890 hc        1 MOL      0.027959
    161 H71        -2.5360   -1.5880   -0.3120 hc        1 MOL      0.042919
    162 H72        -1.8560   -2.8890    0.4740 hc        1 MOL      0.042919
    163 N14        -5.5310   -0.1340    2.5190 n         1 MOL     -0.148699
    164 C55        -6.4210    0.8110    3.2440 c3        1 MOL     -0.081644
    165 H73        -7.0940    1.2930    2.5340 h1        1 MOL      0.053528
    166 H74        -7.0060    0.2660    3.9840 h1        1 MOL      0.053528
    167 H75        -5.8180    1.5690    3.7430 h1        1 MOL      0.053528
    168 H76        -5.2330    0.0930    1.5810 hn        1 MOL      0.131037
    169 Ca1         2.2280    0.0050   -0.1440 Ca        1 MOL      1.671042
    170 O24         1.8730   -0.1220    2.5960 oh        1 MOL     -0.829313
    171 H77         0.9470    0.1070    2.4970 ho        1 MOL      0.402602
    172 H78         2.0030   -0.1590    3.5450 ho        1 MOL      0.402602
    173 O25         4.7080    0.3150    1.2330 oh        1 MOL     -0.829313
    174 H79         4.7240   -0.6150    1.4420 ho        1 MOL      0.402602
    175 H80         5.0050    0.7430    2.0370 ho        1 MOL      0.402602
@<TRIPOS>BOND
     1    1    2 1   
     2    1    4 1   
     3    1    5 1   
     4    1    6 1   
     5    2    3 2   
     6    2    7 1   
     7    7    8 1   
     8    7   15 1   
     9    8    9 1   
    10    8   11 1   
    11    8   16 1   
    12    9   10 2   
    13    9   19 1   
    14   11   12 1   
    15   11   17 1   
    16   11   18 1   
    17   12   13 1   
    18   12   14 1   
    19   19   20 1   
    20   19   24 1   
    21   20   21 1   
    22   20   23 1   
    23   20   25 1   
    24   21   22 2   
    25   21   29 1   
    26   23   26 1   
    27   23   27 1   
    28   23   28 1   
    29   29   30 1   
    30   29   37 1   
    31   30   31 1   
    32   30   33 1   
    33   30   38 1   
    34   31   32 2   
    35   31   41 1   
    36   33   34 1   
    37   33   39 1   
    38   33   40 1   
    39   34   35 1   
    40   34   36 1   
    41   41   42 1   
    42   41   45 1   
    43   42   43 1   
    44   42   46 1   
    45   42   47 1   
    46   43   44 2   
    47   43   48 1   
    48   48   49 1   
    49   48   56 1   
    50   49   50 1   
    51   49   52 1   
    52   49   57 1   
    53   50   51 2   
    54   50   62 1   
    55   52   53 1   
    56   52   58 1   
    57   52   59 1   
    58   53   54 1   
    59   53   55 2   
    60   54   60 1   
    61   54   61 1   
    62   62   63 1   
    63   62   66 1   
    64   63   64 1   
    65   63   67 1   
    66   63   68 1   
    67   64   65 2   
    68   64   69 1   
    69   69   70 1   
    70   69   76 1   
    71   70   71 1   
    72   70   73 1   
    73   70   77 1   
    74   71   72 2   
    75   71   83 1   
    76   73   74 1   
    77   73   75 1   
    78   73   78 1   
    79   74   80 1   
    80   74   81 1   
    81   74   82 1   
    82   75   79 1   
    83   83   84 1   
    84   83   91 1   
    85   84   85 1   
    86   84   87 1   
    87   84   92 1   
    88   85   86 2   
    89   85  102 1   
    90   87   88 1   
    91   87   89 1   
    92   87   93 1   
    93   88   90 1   
    94   88   94 1   
    95   88   95 1   
    96   89   96 1   
    97   89   97 1   
    98   89   98 1   
    99   90   99 1   
   100   90  100 1   
   101   90  101 1   
   102  102  103 1   
   103  102  110 1   
   104  103  104 1   
   105  103  106 1   
   106  103  111 1   
   107  104  105 2   
   108  104  114 1   
   109  106  107 1   
   110  106  112 1   
   111  106  113 1   
   112  107  108 1   
   113  107  109 1   
   114  114  115 1   
   115  114  125 1   
   116  115  116 1   
   117  115  118 1   
   118  115  126 1   
   119  116  117 2   
   120  116  134 1   
   121  118  119 1   
   122  118  127 1   
   123  118  128 1   
   124  119  120 ar  
   125  119  121 ar  
   126  120  122 ar  
   127  120  129 1   
   128  121  123 ar  
   129  121  130 1   
   130  122  124 ar  
   131  122  131 1   
   132  123  124 ar  
   133  123  132 1   
   134  124  133 1   
   135  134  135 1   
   136  134  140 1   
   137  135  136 1   
   138  135  138 1   
   139  135  141 1   
   140  136  137 2   
   141  136  148 1   
   142  138  139 1   
   143  138  142 1   
   144  138  143 1   
   145  139  140 1   
   146  139  144 1   
   147  139  145 1   
   148  140  146 1   
   149  140  147 1   
   150  148  149 1   
   151  148  157 1   
   152  149  150 1   
   153  149  152 1   
   154  149  158 1   
   155  150  151 2   
   156  150  163 1   
   157  152  153 1   
   158  152  159 1   
   159  152  160 1   
   160  153  154 1   
   161  153  161 1   
   162  153  162 1   
   163  154  155 1   
   164  154  156 1   
   165  163  164 1   
   166  163  168 1   
   167  164  165 1   
   168  164  166 1   
   169  164  167 1   
   170  170  171 1   
   171  170  172 1   
   172  173  174 1   
   173  173  175 1   
@<TRIPOS>SUBSTRUCTURE
     1 MOL         1 TEMP              0 ****  ****    0 ROOT
