@<TRIPOS>MOLECULE
MOL
  189   185     1     0     0
SMALL
resp


@<TRIPOS>ATOM
      1 C1          0.3470    2.5490    5.7410 c3        1 MOL     -0.319159
      2 C2         -0.0340    2.0680    4.2920 c         1 MOL      0.662960
      3 O1          0.6850    2.4400    3.3900 o         1 MOL     -0.623225
      4 H1         -0.2380    3.4320    5.9960 hc        1 MOL      0.084207
      5 H2          0.1350    1.7530    6.4560 hc        1 MOL      0.084207
      6 H3          1.4090    2.7950    5.7750 hc        1 MOL      0.084207
      7 N1         -1.1670    1.4180    4.1300 n         1 MOL     -0.523522
      8 C3         -1.7810    1.1640    2.7940 c3        1 MOL      0.082102
      9 C4         -2.3050    2.5280    2.1740 c         1 MOL      0.406032
     10 O2         -3.5280    2.7410    2.0860 o         1 MOL     -0.449345
     11 C5         -2.9280    0.0800    2.9000 c3        1 MOL     -0.108796
     12 C6         -3.6270   -0.1860    1.5260 c         1 MOL      0.629258
     13 O3         -3.2040    0.4240    0.5160 o         1 MOL     -0.605773
     14 O4         -4.6310   -0.9110    1.5580 o         1 MOL     -0.605773
     15 H4         -1.6680    1.0560    4.9260 hn        1 MOL      0.304846
     16 H5         -0.9940    0.7350    2.1670 h1        1 MOL      0.057720
     17 H6         -3.6540    0.4840    3.6020 hc        1 MOL      0.043881
     18 H7         -2.5190   -0.8290    3.3550 hc        1 MOL      0.043881
     19 N2         -1.3980    3.2830    1.5400 n         1 MOL     -0.277884
     20 C7         -1.6130    4.7380    1.2230 c3        1 MOL     -0.080735
     21 C8         -2.8140    5.0230    0.2650 c         1 MOL      0.467371
     22 O5         -3.4720    6.1000    0.3630 o         1 MOL     -0.582313
     23 C9         -0.3010    5.3540    0.6180 c3        1 MOL      0.097488
     24 C10         0.0250    6.7370    1.1990 c3        1 MOL     -0.065681
     25 C11        -0.6290    7.9020    0.6400 c3        1 MOL     -0.022422
     26 C12        -0.0810    9.1700    1.2580 c3        1 MOL     -0.062699
     27 N3          1.3440    9.3570    1.1150 n4        1 MOL     -0.340293
     28 H8         -0.4510    2.9300    1.4350 hn        1 MOL      0.353104
     29 H9         -1.7630    5.2760    2.1540 h1        1 MOL      0.096988
     30 H10        -0.3820    5.3590   -0.4630 hc        1 MOL     -0.017236
     31 H11         0.4840    4.6220    0.8120 hc        1 MOL     -0.017236
     32 H12         1.0710    6.9230    0.9400 hc        1 MOL      0.028368
     33 H13        -0.1270    6.8470    2.2750 hc        1 MOL      0.028368
     34 H14        -1.6640    7.8990    0.9880 hc        1 MOL      0.047797
     35 H15        -0.6910    7.9740   -0.4490 hc        1 MOL      0.047797
     36 H16        -0.3490    9.2850    2.3090 hx        1 MOL      0.120206
     37 H17        -0.5560   10.0020    0.7300 hx        1 MOL      0.120206
     38 H18         1.8770    8.6300    1.5800 hn        1 MOL      0.318539
     39 H19         1.6370    9.3980    0.1530 hn        1 MOL      0.318539
     40 H20         1.6170   10.2860    1.4190 hn        1 MOL      0.318539
     41 N4         -3.1510    4.1180   -0.6050 n         1 MOL     -0.194523
     42 C13        -4.2450    4.1350   -1.6230 c3        1 MOL     -0.134390
     43 C14        -5.4230    3.1360   -1.3110 c         1 MOL      0.471455
     44 O6         -6.4400    3.1460   -2.0010 o         1 MOL     -0.498509
     45 C15        -3.7370    3.8580   -3.0530 c3        1 MOL     -0.103000
     46 C16        -2.7480    2.7010   -3.1890 c         1 MOL      0.835075
     47 O7         -2.7330    1.7770   -2.3200 o         1 MOL     -0.761463
     48 O8         -1.9400    2.7190   -4.1190 o         1 MOL     -0.761463
     49 H21        -2.6720    3.2470   -0.4390 hn        1 MOL      0.186568
     50 H22        -4.7290    5.1090   -1.5940 h1        1 MOL      0.126788
     51 H23        -3.1470    4.7010   -3.4170 hc        1 MOL      0.029155
     52 H24        -4.4710    3.7450   -3.8500 hc        1 MOL      0.029155
     53 N5         -5.3720    2.3730   -0.1630 n         1 MOL      0.045819
     54 C17        -6.5080    1.6610    0.3790 c3        1 MOL     -0.321708
     55 C18        -7.0560    0.6020   -0.4940 c         1 MOL      0.562372
     56 O9         -8.0100    0.8020   -1.2900 o         1 MOL     -0.551955
     57 H25        -4.4650    2.1420    0.2200 hn        1 MOL     -0.056442
     58 H26        -7.2210    2.4500    0.5950 h1        1 MOL      0.118544
     59 H27        -6.2680    1.1910    1.3370 h1        1 MOL      0.118544
     60 N6         -6.4890   -0.5950   -0.4410 n         1 MOL     -0.335644
     61 C19        -6.9650   -1.7840   -1.2200 c3        1 MOL     -0.038708
     62 C20        -6.9410   -3.0820   -0.3450 c         1 MOL      0.479847
     63 O10        -7.4510   -4.1580   -0.7560 o         1 MOL     -0.532935
     64 C21        -6.0600   -1.9350   -2.4540 c3        1 MOL      0.087519
     65 C22        -4.5320   -1.8290   -2.2590 c         1 MOL      0.711574
     66 O11        -3.9150   -2.3330   -1.3370 o         1 MOL     -0.750765
     67 O12        -3.9180   -1.1370   -3.0710 o         1 MOL     -0.750765
     68 H28        -5.6570   -0.7530    0.1030 hn        1 MOL      0.192358
     69 H29        -7.9750   -1.6070   -1.5860 h1        1 MOL      0.094478
     70 H30        -6.3970   -1.2890   -3.2660 hc        1 MOL     -0.004680
     71 H31        -6.2300   -2.9140   -2.8870 hc        1 MOL     -0.004680
     72 N7         -6.4380   -2.9980    0.9300 n         1 MOL     -0.439027
     73 C23        -6.1720   -4.1900    1.7530 c3        1 MOL      0.128647
     74 C24        -4.8170   -4.8360    1.6480 c         1 MOL      0.341140
     75 O13        -4.6220   -5.9390    2.2340 o         1 MOL     -0.549178
     76 H32        -5.9760   -2.1510    1.2180 hn        1 MOL      0.245659
     77 H33        -6.9180   -4.9490    1.5180 h1        1 MOL      0.057149
     78 H34        -6.4410   -4.0260    2.7910 h1        1 MOL      0.057149
     79 N8         -3.8950   -4.1730    0.9180 n         1 MOL     -0.146118
     80 C25        -2.5280   -4.7150    0.5770 c3        1 MOL     -0.161087
     81 C26        -1.3440   -3.6870    0.6540 c         1 MOL      0.574126
     82 O14        -1.4940   -2.4960    0.3110 o         1 MOL     -0.573253
     83 C27        -2.5310   -5.5070   -0.7110 c3        1 MOL      0.538496
     84 C28        -3.2240   -6.8380   -0.6710 c3        1 MOL     -0.540323
     85 O15        -3.2430   -4.8410   -1.7170 oh        1 MOL     -0.668303
     86 H35        -4.1860   -3.3390    0.4310 hn        1 MOL      0.159931
     87 H36        -2.3020   -5.4100    1.3850 h1        1 MOL      0.091986
     88 H37        -1.5000   -5.6910   -1.0300 h1        1 MOL     -0.074778
     89 H38        -3.4150   -3.9560   -1.3970 ho        1 MOL      0.458938
     90 H39        -2.7570   -7.4330    0.1090 hc        1 MOL      0.141638
     91 H40        -4.2920   -6.7270   -0.4340 hc        1 MOL      0.141638
     92 H41        -3.2210   -7.3340   -1.6380 hc        1 MOL      0.141638
     93 N9         -0.1610   -4.1270    1.1910 n         1 MOL     -0.602628
     94 C29         0.9840   -3.3020    1.5040 c3        1 MOL      0.068525
     95 C30         2.1010   -3.8230    0.6100 c         1 MOL      0.446643
     96 O16         2.5740   -4.9690    0.7880 o         1 MOL     -0.534859
     97 C31         1.3370   -3.2320    3.0280 c3        1 MOL     -0.035138
     98 C32         0.2000   -2.4450    3.6970 c3        1 MOL      0.226848
     99 C33         2.6820   -2.5100    3.2200 c3        1 MOL     -0.166112
    100 C34         0.2050   -2.4580    5.2570 c3        1 MOL     -0.360785
    101 H42        -0.0470   -5.1240    1.3540 hn        1 MOL      0.322130
    102 H43         0.7870   -2.2750    1.1990 h1        1 MOL      0.040308
    103 H44         1.3780   -4.2230    3.4890 hc        1 MOL      0.065115
    104 H45        -0.7900   -2.8310    3.4510 hc        1 MOL      0.001451
    105 H46         0.1400   -1.4000    3.3990 hc        1 MOL      0.001451
    106 H47         2.7180   -1.4720    2.8870 hc        1 MOL      0.033509
    107 H48         2.8190   -2.3040    4.2830 hc        1 MOL      0.033509
    108 H49         3.4990   -3.1390    2.8820 hc        1 MOL      0.033509
    109 H50         0.9010   -1.6800    5.5730 hc        1 MOL      0.075985
    110 H51        -0.7760   -2.1880    5.6390 hc        1 MOL      0.075985
    111 H52         0.4030   -3.4850    5.5630 hc        1 MOL      0.075985
    112 N10         2.6320   -2.8980   -0.2480 n         1 MOL     -0.203001
    113 C35         3.7980   -3.1460   -1.0920 c3        1 MOL      0.009118
    114 C36         5.0520   -2.5430   -0.4220 c         1 MOL      0.320685
    115 O17         5.0060   -2.0060    0.6940 o         1 MOL     -0.329559
    116 C37         3.4600   -2.4120   -2.4470 c3        1 MOL      0.072768
    117 C38         2.2880   -2.9800   -3.2370 c3        1 MOL     -0.229082
    118 O18         3.2740   -1.0530   -2.3630 oh        1 MOL     -0.539254
    119 H53         2.1350   -2.0210   -0.3050 hn        1 MOL      0.292645
    120 H54         3.9500   -4.2160   -1.2670 h1        1 MOL      0.076383
    121 H55         4.3220   -2.4700   -3.1210 h1        1 MOL      0.056276
    122 H56         2.3630   -0.8540   -2.1270 ho        1 MOL      0.389313
    123 H57         1.7650   -2.2190   -3.8140 hc        1 MOL      0.071619
    124 H58         2.5660   -3.7300   -3.9750 hc        1 MOL      0.071619
    125 H59         1.4780   -3.3490   -2.6060 hc        1 MOL      0.071619
    126 N11         6.1950   -2.7560   -1.0630 n         1 MOL     -0.236100
    127 C39         7.4890   -2.2630   -0.4860 c3        1 MOL     -0.195087
    128 C40         7.5350   -0.7930   -0.2960 c         1 MOL      0.329587
    129 O19         8.1960   -0.3900    0.6750 o         1 MOL     -0.503715
    130 C41         8.6020   -2.5930   -1.4970 c3        1 MOL      0.362330
    131 C42         8.8890   -4.1340   -1.4880 c3        1 MOL     -0.505559
    132 O20         8.2420   -2.2340   -2.8050 oh        1 MOL     -0.640059
    133 H60         6.0200   -3.1150   -1.9880 hn        1 MOL      0.190469
    134 H61         7.6580   -2.7610    0.4670 h1        1 MOL      0.173477
    135 H62         9.5170   -2.0460   -1.2380 h1        1 MOL      0.095856
    136 H63         7.7530   -2.9330   -3.2330 ho        1 MOL      0.413433
    137 H64         8.0650   -4.6280   -1.9920 hc        1 MOL      0.140360
    138 H65         9.7680   -4.2220   -2.1260 hc        1 MOL      0.140360
    139 H66         9.0080   -4.5500   -0.4860 hc        1 MOL      0.140360
    140 N12         6.8860   -0.0380   -1.1620 n         1 MOL     -0.083495
    141 C43         6.8960    1.4480   -1.0380 c3        1 MOL     -0.056318
    142 C44         5.9730    1.9730    0.0580 c         1 MOL      0.360898
    143 O21         6.0860    3.1090    0.4250 o         1 MOL     -0.529543
    144 C45         6.5750    2.0700   -2.3960 c3        1 MOL     -0.191593
    145 C46         5.0450    2.0860   -2.6690 c3        1 MOL      0.217476
    146 C47         4.6990    2.6150   -4.0500 c3        1 MOL     -0.212388
    147 C48         3.2070    2.6670   -4.1600 c3        1 MOL      0.103996
    148 N13         2.6590    3.1430   -5.4650 n4        1 MOL     -0.328493
    149 H67         6.5450   -0.4650   -2.0110 hn        1 MOL      0.196971
    150 H68         7.9010    1.8140   -0.8840 h1        1 MOL      0.135923
    151 H69         7.0890    1.4310   -3.1110 hc        1 MOL      0.063541
    152 H70         6.9300    3.0990   -2.4460 hc        1 MOL      0.063541
    153 H71         4.5360    2.7000   -1.9220 hc        1 MOL     -0.006119
    154 H72         4.6110    1.0920   -2.5550 hc        1 MOL     -0.006119
    155 H73         5.1860    2.0230   -4.8230 hc        1 MOL      0.056379
    156 H74         5.1460    3.6060   -4.0630 hc        1 MOL      0.056379
    157 H75         2.9900    3.3700   -3.3520 hx        1 MOL      0.075034
    158 H76         2.7990    1.6810   -3.9290 hx        1 MOL      0.075034
    159 H77         1.6820    2.8940   -5.5770 hn        1 MOL      0.317425
    160 H78         2.7260    4.1270   -5.6660 hn        1 MOL      0.317425
    161 H79         3.1480    2.7240   -6.2490 hn        1 MOL      0.317425
    162 N14         5.1070    1.1510    0.5920 n         1 MOL     -0.028760
    163 C49         4.2110    1.3580    1.7860 c3        1 MOL     -0.032890
    164 C50         4.8290    0.6440    3.0290 c         1 MOL      0.411966
    165 O22         4.7260    1.1650    4.1570 o         1 MOL     -0.546678
    166 C51         2.8210    0.7350    1.5040 c3        1 MOL      0.080096
    167 C52         2.1110    1.4440    0.3940 c3        1 MOL     -0.160270
    168 C53         0.8970    0.6770   -0.1000 c         1 MOL      0.641236
    169 O23         0.8840   -0.5310   -0.4210 o         1 MOL     -0.762997
    170 O24        -0.1170    1.3680   -0.3600 o         1 MOL     -0.762997
    171 H80         5.0310    0.1870    0.2930 hn        1 MOL     -0.042357
    172 H81         4.1360    2.4190    2.0280 h1        1 MOL      0.075984
    173 H82         2.2090    0.6860    2.4010 hc        1 MOL      0.058573
    174 H83         3.0770   -0.2370    1.0740 hc        1 MOL      0.058573
    175 H84         2.8270    1.6660   -0.3960 hc        1 MOL      0.027285
    176 H85         1.7120    2.3790    0.7910 hc        1 MOL      0.027285
    177 N15         5.5840   -0.4340    2.8050 n         1 MOL     -0.088441
    178 C54         6.3330   -1.0470    3.8510 c3        1 MOL     -0.167933
    179 H86         6.0320   -0.6240    4.8090 h1        1 MOL      0.073410
    180 H87         6.1450   -2.1210    3.8540 h1        1 MOL      0.073410
    181 H88         7.3960   -0.8650    3.6930 h1        1 MOL      0.073410
    182 H89         5.6090   -0.7660    1.8520 hn        1 MOL      0.157191
    183 Ca1        -1.8110   -0.4440   -1.4580 Ca        1 MOL      1.817595
    184 O25        -1.0950   -2.8560   -2.6280 oh        1 MOL     -0.854629
    185 H90        -0.7110   -3.0690   -3.4700 ho        1 MOL      0.396672
    186 H91        -1.6260   -3.6210   -2.4070 ho        1 MOL      0.396672
    187 O26        -0.8440    0.1300   -3.7730 oh        1 MOL     -0.854629
    188 H92        -1.2030    0.9500   -4.1180 ho        1 MOL      0.396672
    189 H93        -0.3760   -0.2600   -4.5090 ho        1 MOL      0.396672
@<TRIPOS>BOND
     1    1    2 1   
     2    1    4 1   
     3    1    5 1   
     4    1    6 1   
     5    2    3 2   
     6    2    7 1   
     7    7    8 1   
     8    7   15 1   
     9    8    9 1   
    10    8   11 1   
    11    8   16 1   
    12    9   10 2   
    13    9   19 1   
    14   11   12 1   
    15   11   17 1   
    16   11   18 1   
    17   12   13 1   
    18   12   14 1   
    19   19   20 1   
    20   19   28 1   
    21   20   21 1   
    22   20   23 1   
    23   20   29 1   
    24   21   22 2   
    25   21   41 1   
    26   23   24 1   
    27   23   30 1   
    28   23   31 1   
    29   24   25 1   
    30   24   32 1   
    31   24   33 1   
    32   25   26 1   
    33   25   34 1   
    34   25   35 1   
    35   26   27 1   
    36   26   36 1   
    37   26   37 1   
    38   27   38 1   
    39   27   39 1   
    40   27   40 1   
    41   41   42 1   
    42   41   49 1   
    43   42   43 1   
    44   42   45 1   
    45   42   50 1   
    46   43   44 2   
    47   43   53 1   
    48   45   46 1   
    49   45   51 1   
    50   45   52 1   
    51   46   47 1   
    52   46   48 1   
    53   53   54 1   
    54   53   57 1   
    55   54   55 1   
    56   54   58 1   
    57   54   59 1   
    58   55   56 2   
    59   55   60 1   
    60   60   61 1   
    61   60   68 1   
    62   61   62 1   
    63   61   64 1   
    64   61   69 1   
    65   62   63 2   
    66   62   72 1   
    67   64   65 1   
    68   64   70 1   
    69   64   71 1   
    70   65   66 1   
    71   65   67 1   
    72   72   73 1   
    73   72   76 1   
    74   73   74 1   
    75   73   77 1   
    76   73   78 1   
    77   74   75 2   
    78   74   79 1   
    79   79   80 1   
    80   79   86 1   
    81   80   81 1   
    82   80   83 1   
    83   80   87 1   
    84   81   82 2   
    85   81   93 1   
    86   83   84 1   
    87   83   85 1   
    88   83   88 1   
    89   84   90 1   
    90   84   91 1   
    91   84   92 1   
    92   85   89 1   
    93   93   94 1   
    94   93  101 1   
    95   94   95 1   
    96   94   97 1   
    97   94  102 1   
    98   95   96 2   
    99   95  112 1   
   100   97   98 1   
   101   97   99 1   
   102   97  103 1   
   103   98  100 1   
   104   98  104 1   
   105   98  105 1   
   106   99  106 1   
   107   99  107 1   
   108   99  108 1   
   109  100  109 1   
   110  100  110 1   
   111  100  111 1   
   112  112  113 1   
   113  112  119 1   
   114  113  114 1   
   115  113  116 1   
   116  113  120 1   
   117  114  115 2   
   118  114  126 1   
   119  116  117 1   
   120  116  118 1   
   121  116  121 1   
   122  117  123 1   
   123  117  124 1   
   124  117  125 1   
   125  118  122 1   
   126  126  127 1   
   127  126  133 1   
   128  127  128 1   
   129  127  130 1   
   130  127  134 1   
   131  128  129 2   
   132  128  140 1   
   133  130  131 1   
   134  130  132 1   
   135  130  135 1   
   136  131  137 1   
   137  131  138 1   
   138  131  139 1   
   139  132  136 1   
   140  140  141 1   
   141  140  149 1   
   142  141  142 1   
   143  141  144 1   
   144  141  150 1   
   145  142  143 2   
   146  142  162 1   
   147  144  145 1   
   148  144  151 1   
   149  144  152 1   
   150  145  146 1   
   151  145  153 1   
   152  145  154 1   
   153  146  147 1   
   154  146  155 1   
   155  146  156 1   
   156  147  148 1   
   157  147  157 1   
   158  147  158 1   
   159  148  159 1   
   160  148  160 1   
   161  148  161 1   
   162  162  163 1   
   163  162  171 1   
   164  163  164 1   
   165  163  166 1   
   166  163  172 1   
   167  164  165 2   
   168  164  177 1   
   169  166  167 1   
   170  166  173 1   
   171  166  174 1   
   172  167  168 1   
   173  167  175 1   
   174  167  176 1   
   175  168  169 1   
   176  168  170 1   
   177  177  178 1   
   178  177  182 1   
   179  178  179 1   
   180  178  180 1   
   181  178  181 1   
   182  184  185 1   
   183  184  186 1   
   184  187  188 1   
   185  187  189 1   
@<TRIPOS>SUBSTRUCTURE
     1 MOL         1 TEMP              0 ****  ****    0 ROOT
