@<TRIPOS>MOLECULE
MOL
  182   178     1     0     0
SMALL
resp


@<TRIPOS>ATOM
      1 C1          2.3580    1.5780    5.4510 c3        1 MOL     -0.314644
      2 C2          1.6960    1.5750    4.0740 c         1 MOL      0.743829
      3 O1          2.4320    1.5780    3.0810 o         1 MOL     -0.601544
      4 H1          2.3510    0.5660    5.8590 hc        1 MOL      0.077107
      5 H2          3.3870    1.9240    5.3600 hc        1 MOL      0.077107
      6 H3          1.8070    2.2410    6.1190 hc        1 MOL      0.077107
      7 N1          0.3570    1.6450    4.0400 n         1 MOL     -0.616418
      8 C3         -0.3000    1.7280    2.7440 c3        1 MOL     -0.020904
      9 C4         -0.2060    3.2240    2.2650 c         1 MOL      0.723010
     10 O2         -0.8390    4.0310    2.9250 o         1 MOL     -0.563478
     11 C5         -1.6480    1.1300    2.9840 c3        1 MOL     -0.220905
     12 C6         -2.6190    1.3260    1.8580 c         1 MOL      0.824820
     13 O3         -2.1640    1.6540    0.7450 o         1 MOL     -0.730908
     14 O4         -3.8620    1.2000    2.0100 o         1 MOL     -0.730908
     15 H4         -0.1870    1.7320    4.8860 hn        1 MOL      0.360466
     16 H5          0.2500    1.1950    1.9630 h1        1 MOL      0.107779
     17 H6         -2.0470    1.6350    3.8610 hc        1 MOL      0.061733
     18 H7         -1.5130    0.0590    3.0700 hc        1 MOL      0.061733
     19 N2          0.5690    3.5400    1.2240 n         1 MOL     -0.523609
     20 C7          1.0700    4.9100    0.8210 c3        1 MOL      0.067663
     21 C8         -0.0630    5.7350    0.1680 c         1 MOL      0.465205
     22 O5         -0.3690    6.8220    0.6340 o         1 MOL     -0.559817
     23 C9          2.2310    4.7860   -0.1730 c3        1 MOL     -0.238636
     24 C10         2.9560    6.1770   -0.3700 c3        1 MOL     -0.028477
     25 C11         3.6730    6.6570    0.9330 c3        1 MOL      0.103200
     26 C12         4.6670    7.7980    0.5820 c3        1 MOL      0.072673
     27 N3          4.0060    9.1320    0.1960 n4        1 MOL     -0.627289
     28 H8          1.0260    2.7430    0.8080 hn        1 MOL      0.278733
     29 H9          1.4030    5.4930    1.6780 h1        1 MOL      0.040743
     30 H10         1.8360    4.4860   -1.1460 hc        1 MOL      0.144595
     31 H11         2.9940    4.0880    0.1760 hc        1 MOL      0.144595
     32 H12         2.1750    6.8750   -0.6430 hc        1 MOL     -0.008839
     33 H13         3.7400    6.0240   -1.1150 hc        1 MOL     -0.008839
     34 H14         4.2330    5.8560    1.4110 hc        1 MOL      0.028633
     35 H15         2.8860    7.0950    1.5510 hc        1 MOL      0.028633
     36 H16         5.4060    7.4950   -0.1630 hx        1 MOL      0.079961
     37 H17         5.2560    7.9540    1.4910 hx        1 MOL      0.079961
     38 H18         3.8060    9.6550    1.0380 hn        1 MOL      0.399580
     39 H19         4.5830    9.6210   -0.4740 hn        1 MOL      0.399580
     40 H20         3.1030    8.9570   -0.2190 hn        1 MOL      0.399580
     41 N4         -0.6590    5.1400   -0.8360 n         1 MOL     -0.166802
     42 C13        -1.8140    5.6880   -1.6770 c3        1 MOL     -0.175821
     43 C14        -3.1850    5.4200   -1.1390 c         1 MOL      0.487207
     44 O6         -4.1840    5.9890   -1.6200 o         1 MOL     -0.522980
     45 C15        -1.6530    5.1800   -3.1230 c3        1 MOL     -0.076916
     46 C16        -1.7060    3.6780   -3.2810 c         1 MOL      0.707446
     47 O7         -1.6040    2.9890   -2.2950 o         1 MOL     -0.704886
     48 O8         -2.0770    3.2620   -4.3910 o         1 MOL     -0.704886
     49 H21        -0.3030    4.2090   -1.0380 hn        1 MOL      0.138451
     50 H22        -1.6380    6.7680   -1.7370 h1        1 MOL      0.106480
     51 H23        -0.7150    5.5630   -3.5340 hc        1 MOL      0.039849
     52 H24        -2.4690    5.5800   -3.7340 hc        1 MOL      0.039849
     53 N5         -3.3000    4.5330   -0.1300 n         1 MOL     -0.030023
     54 C17        -4.4980    4.2560    0.7100 c3        1 MOL     -0.271459
     55 C18        -5.6630    3.5610    0.0120 c         1 MOL      0.674577
     56 O9         -6.6970    4.1880   -0.3240 o         1 MOL     -0.579637
     57 H25        -2.4600    4.0840    0.2180 hn        1 MOL      0.123344
     58 H26        -4.8700    5.2300    1.0170 h1        1 MOL      0.112041
     59 H27        -4.2270    3.6080    1.5390 h1        1 MOL      0.112041
     60 N6         -5.5590    2.2610   -0.1230 n         1 MOL     -0.378044
     61 C19        -6.4630    1.3460   -0.9180 c3        1 MOL      0.162317
     62 C20        -7.0290    0.2060   -0.0860 c         1 MOL      0.439845
     63 O10        -7.9500   -0.4850   -0.5430 o         1 MOL     -0.522173
     64 C21        -5.7690    0.8340   -2.1810 c3        1 MOL     -0.190838
     65 C22        -4.9120   -0.3080   -1.8740 c         1 MOL      0.180042
     66 N7         -5.0810   -1.4710   -2.4950 n         1 MOL     -0.497082
     67 O11        -3.9550   -0.1690   -1.0600 o         1 MOL     -0.396481
     68 H28        -4.6570    1.8990    0.1440 hn        1 MOL      0.045572
     69 H29        -7.3080    1.9490   -1.2420 h1        1 MOL      0.068344
     70 H30        -5.1260    1.6470   -2.5230 hc        1 MOL      0.127665
     71 H31        -6.4880    0.6440   -2.9740 hc        1 MOL      0.127665
     72 H32        -5.8340   -1.5200   -3.1600 hn        1 MOL      0.325518
     73 H33        -4.3030   -2.1150   -2.4940 hn        1 MOL      0.325518
     74 N8         -6.3540   -0.1710    1.0590 n         1 MOL     -0.393107
     75 C23        -6.5980   -1.4310    1.6850 c3        1 MOL      0.042363
     76 C24        -5.3980   -2.4130    1.8430 c         1 MOL      0.472973
     77 O12        -5.4990   -3.3890    2.6050 o         1 MOL     -0.567425
     78 H34        -5.5420    0.3250    1.3960 hn        1 MOL      0.297024
     79 H35        -7.4040   -1.9550    1.1600 h1        1 MOL      0.074060
     80 H36        -7.0920   -1.3890    2.6540 h1        1 MOL      0.074060
     81 N9         -4.3110   -2.2370    1.1660 n         1 MOL     -0.550316
     82 C25        -3.1570   -3.2200    0.9850 c3        1 MOL      0.559414
     83 C26        -1.8520   -2.5110    0.9910 c         1 MOL      0.225409
     84 O13        -1.7910   -1.4080    0.5140 o         1 MOL     -0.487580
     85 C27        -3.2640   -4.0620   -0.2480 c3        1 MOL      0.108872
     86 C28        -4.3470   -5.0620   -0.1620 ca        1 MOL      0.146490
     87 C29        -5.6910   -4.6720   -0.5260 ca        1 MOL     -0.318245
     88 C30        -4.1100   -6.4080    0.0440 ca        1 MOL     -0.318245
     89 C31        -6.7620   -5.5540   -0.5850 ca        1 MOL     -0.114756
     90 C32        -5.1340   -7.3640   -0.0490 ca        1 MOL     -0.114756
     91 C33        -6.4560   -6.9300   -0.3930 ca        1 MOL      0.228846
     92 O14        -7.4030   -7.9360   -0.5510 oh        1 MOL     -0.460614
     93 H37        -4.2420   -1.4170    0.5870 hn        1 MOL      0.400543
     94 H38        -3.2810   -3.9750    1.7680 h1        1 MOL     -0.036393
     95 H39        -2.3560   -4.6160   -0.4910 hc        1 MOL     -0.056902
     96 H40        -3.5360   -3.4370   -1.0980 hc        1 MOL     -0.056902
     97 H41        -5.9270   -3.6280   -0.6680 ha        1 MOL      0.139242
     98 H42        -3.0650   -6.6330    0.1850 ha        1 MOL      0.139242
     99 H43        -7.7680   -5.2830   -0.8590 ha        1 MOL      0.130542
    100 H44        -4.9200   -8.4270   -0.0130 ha        1 MOL      0.130542
    101 H45        -6.9930   -8.8030   -0.5820 ho        1 MOL      0.332731
    102 N10        -0.8470   -3.2100    1.4700 n         1 MOL     -0.566536
    103 C34         0.5260   -2.8300    1.4730 c3        1 MOL      0.071109
    104 C35         1.3410   -3.8090    0.6160 c         1 MOL      0.590617
    105 O15         1.3540   -5.0040    0.8450 o         1 MOL     -0.562371
    106 C36         1.0760   -2.9230    2.9280 c3        1 MOL      0.145281
    107 C37         0.1260   -2.2230    4.0330 c3        1 MOL      0.216047
    108 C38         2.4710   -2.2650    3.0420 c3        1 MOL     -0.373613
    109 C39         0.4240   -2.8950    5.3870 c3        1 MOL     -0.224633
    110 H46        -1.0260   -4.1720    1.7350 hn        1 MOL      0.280093
    111 H47         0.6290   -1.7750    1.2260 h1        1 MOL      0.156648
    112 H48         1.1330   -3.9800    3.1630 hc        1 MOL     -0.001116
    113 H49        -0.9500   -2.3510    3.9770 hc        1 MOL     -0.029432
    114 H50         0.3840   -1.1710    4.1780 hc        1 MOL     -0.029432
    115 H51         2.8410   -2.4200    4.0550 hc        1 MOL      0.070461
    116 H52         3.1830   -2.8170    2.4170 hc        1 MOL      0.070461
    117 H53         2.4830   -1.2070    2.7970 hc        1 MOL      0.070461
    118 H54         1.4650   -3.2130    5.4660 hc        1 MOL      0.043699
    119 H55         0.0370   -2.2430    6.1760 hc        1 MOL      0.043699
    120 H56        -0.2450   -3.7480    5.4490 hc        1 MOL      0.043699
    121 N11         2.0980   -3.2040   -0.3090 n         1 MOL     -0.403969
    122 C40         3.0480   -4.0190   -1.1800 c3        1 MOL     -0.020452
    123 C41         4.5190   -3.8630   -0.8500 c         1 MOL      0.407818
    124 O16         4.9310   -2.9810   -0.0590 o         1 MOL     -0.383882
    125 C42         2.8320   -3.5710   -2.5780 c3        1 MOL      0.005194
    126 O17         3.1270   -2.2240   -2.6090 oh        1 MOL     -0.509646
    127 H57         1.9500   -2.2100   -0.4180 hn        1 MOL      0.401674
    128 H58         2.7320   -5.0620   -1.1910 h1        1 MOL      0.066615
    129 H59         1.7810   -3.7360   -2.8250 h1        1 MOL      0.072732
    130 H60         3.5030   -4.1320   -3.2290 h1        1 MOL      0.072732
    131 H61         2.5610   -1.7840   -1.9680 ho        1 MOL      0.266380
    132 N12         5.3930   -4.7240   -1.3600 n         1 MOL     -0.300635
    133 C43         6.7610   -4.6940   -0.9320 c3        1 MOL     -0.063112
    134 C44         7.5580   -3.4330   -1.3390 c         1 MOL      0.567366
    135 O18         8.5140   -2.9800   -0.6920 o         1 MOL     -0.520762
    136 C45         7.4910   -5.9850   -1.3460 c3        1 MOL     -0.415878
    137 H62         5.1080   -5.4410   -2.0130 hn        1 MOL      0.265829
    138 H63         6.6450   -4.7620    0.1530 h1        1 MOL      0.138945
    139 H64         8.5180   -5.9910   -0.9780 hc        1 MOL      0.136808
    140 H65         6.9600   -6.8170   -0.8700 hc        1 MOL      0.136808
    141 H66         7.5050   -5.9900   -2.4300 hc        1 MOL      0.136808
    142 N13         7.1170   -2.6910   -2.3890 n         1 MOL     -0.451121
    143 C46         7.6100   -1.3020   -2.6860 c3        1 MOL      0.062430
    144 C47         7.3490   -0.3890   -1.5310 c         1 MOL      0.414982
    145 O19         8.2500    0.2770   -0.9650 o         1 MOL     -0.481672
    146 C48         6.8490   -0.7830   -3.9210 c3        1 MOL     -0.228128
    147 H67         6.3270   -3.0700   -2.8720 hn        1 MOL      0.273047
    148 H68         8.6870   -1.3210   -2.8910 h1        1 MOL      0.097866
    149 H69         5.7800   -0.8090   -3.7140 hc        1 MOL      0.066179
    150 H70         7.0650    0.2890   -3.9420 hc        1 MOL      0.066179
    151 H71         6.9690   -1.2170   -4.9090 hc        1 MOL      0.066179
    152 N14         6.0440   -0.3930   -1.1280 n         1 MOL     -0.168143
    153 C49         5.5890    0.4530   -0.0240 c3        1 MOL     -0.273531
    154 C50         6.2280    0.1010    1.3390 c         1 MOL      0.518337
    155 O20         6.4830    1.1200    2.0050 o         1 MOL     -0.562489
    156 C51         4.0330    0.1860    0.2300 c3        1 MOL      0.120404
    157 C52         3.1870    0.8390   -0.8810 c3        1 MOL      0.126748
    158 C53         1.6940    0.4570   -0.8190 c         1 MOL      0.474647
    159 O21         1.1620   -0.6340   -1.1460 o         1 MOL     -0.697224
    160 O22         0.8980    1.2850   -0.3900 o         1 MOL     -0.697224
    161 H72         5.4050   -1.0010   -1.6240 hn        1 MOL      0.225503
    162 H73         5.7320    1.5150   -0.1910 h1        1 MOL      0.141240
    163 H74         3.7540    0.7240    1.1440 hc        1 MOL      0.009776
    164 H75         3.7890   -0.8600    0.3930 hc        1 MOL      0.009776
    165 H76         3.6010    0.4870   -1.8330 hc        1 MOL     -0.061017
    166 H77         3.3240    1.9170   -0.9090 hc        1 MOL     -0.061017
    167 N15         6.5310   -1.1370    1.6910 n         1 MOL     -0.077316
    168 C54         7.2390   -1.4840    2.9360 c3        1 MOL     -0.372074
    169 H78         6.8680   -2.4380    3.3110 h1        1 MOL      0.138260
    170 H79         8.3080   -1.5630    2.7370 h1        1 MOL      0.138260
    171 H80         7.0640   -0.7080    3.6830 h1        1 MOL      0.138260
    172 H81         6.2570   -1.8760    1.0600 hn        1 MOL      0.119884
    173 Ca1        -1.4620    0.5990   -1.4220 Ca        1 MOL      1.706374
    174 O23        -2.7600    0.6330   -3.9410 oh        1 MOL     -0.826361
    175 H82        -2.7080    0.1950   -4.7890 ho        1 MOL      0.402921
    176 H83        -2.6420    1.5640   -4.1550 ho        1 MOL      0.402921
    177 O24         0.1540    0.0140   -3.7220 oh        1 MOL     -0.826361
    178 H84         0.6490    0.6620   -4.2240 ho        1 MOL      0.402921
    179 H85         0.7990   -0.4100   -3.1660 ho        1 MOL      0.402921
    180 O25        -1.6200   -1.8600   -2.3280 oh        1 MOL     -0.826361
    181 H86        -0.9940   -2.5760   -2.3480 ho        1 MOL      0.402921
    182 H87        -2.0540   -1.9020   -3.1870 ho        1 MOL      0.402921
@<TRIPOS>BOND
     1    1    2 1   
     2    1    4 1   
     3    1    5 1   
     4    1    6 1   
     5    2    3 2   
     6    2    7 1   
     7    7    8 1   
     8    7   15 1   
     9    8    9 1   
    10    8   11 1   
    11    8   16 1   
    12    9   10 2   
    13    9   19 1   
    14   11   12 1   
    15   11   17 1   
    16   11   18 1   
    17   12   13 1   
    18   12   14 1   
    19   19   20 1   
    20   19   28 1   
    21   20   21 1   
    22   20   23 1   
    23   20   29 1   
    24   21   22 2   
    25   21   41 1   
    26   23   24 1   
    27   23   30 1   
    28   23   31 1   
    29   24   25 1   
    30   24   32 1   
    31   24   33 1   
    32   25   26 1   
    33   25   34 1   
    34   25   35 1   
    35   26   27 1   
    36   26   36 1   
    37   26   37 1   
    38   27   38 1   
    39   27   39 1   
    40   27   40 1   
    41   41   42 1   
    42   41   49 1   
    43   42   43 1   
    44   42   45 1   
    45   42   50 1   
    46   43   44 2   
    47   43   53 1   
    48   45   46 1   
    49   45   51 1   
    50   45   52 1   
    51   46   47 1   
    52   46   48 1   
    53   53   54 1   
    54   53   57 1   
    55   54   55 1   
    56   54   58 1   
    57   54   59 1   
    58   55   56 2   
    59   55   60 1   
    60   60   61 1   
    61   60   68 1   
    62   61   62 1   
    63   61   64 1   
    64   61   69 1   
    65   62   63 2   
    66   62   74 1   
    67   64   65 1   
    68   64   70 1   
    69   64   71 1   
    70   65   66 1   
    71   65   67 2   
    72   66   72 1   
    73   66   73 1   
    74   74   75 1   
    75   74   78 1   
    76   75   76 1   
    77   75   79 1   
    78   75   80 1   
    79   76   77 2   
    80   76   81 1   
    81   81   82 1   
    82   81   93 1   
    83   82   83 1   
    84   82   85 1   
    85   82   94 1   
    86   83   84 2   
    87   83  102 1   
    88   85   86 1   
    89   85   95 1   
    90   85   96 1   
    91   86   87 ar  
    92   86   88 ar  
    93   87   89 ar  
    94   87   97 1   
    95   88   90 ar  
    96   88   98 1   
    97   89   91 ar  
    98   89   99 1   
    99   90   91 ar  
   100   90  100 1   
   101   91   92 1   
   102   92  101 1   
   103  102  103 1   
   104  102  110 1   
   105  103  104 1   
   106  103  106 1   
   107  103  111 1   
   108  104  105 2   
   109  104  121 1   
   110  106  107 1   
   111  106  108 1   
   112  106  112 1   
   113  107  109 1   
   114  107  113 1   
   115  107  114 1   
   116  108  115 1   
   117  108  116 1   
   118  108  117 1   
   119  109  118 1   
   120  109  119 1   
   121  109  120 1   
   122  121  122 1   
   123  121  127 1   
   124  122  123 1   
   125  122  125 1   
   126  122  128 1   
   127  123  124 2   
   128  123  132 1   
   129  125  126 1   
   130  125  129 1   
   131  125  130 1   
   132  126  131 1   
   133  132  133 1   
   134  132  137 1   
   135  133  134 1   
   136  133  136 1   
   137  133  138 1   
   138  134  135 2   
   139  134  142 1   
   140  136  139 1   
   141  136  140 1   
   142  136  141 1   
   143  142  143 1   
   144  142  147 1   
   145  143  144 1   
   146  143  146 1   
   147  143  148 1   
   148  144  145 2   
   149  144  152 1   
   150  146  149 1   
   151  146  150 1   
   152  146  151 1   
   153  152  153 1   
   154  152  161 1   
   155  153  154 1   
   156  153  156 1   
   157  153  162 1   
   158  154  155 2   
   159  154  167 1   
   160  156  157 1   
   161  156  163 1   
   162  156  164 1   
   163  157  158 1   
   164  157  165 1   
   165  157  166 1   
   166  158  159 1   
   167  158  160 1   
   168  167  168 1   
   169  167  172 1   
   170  168  169 1   
   171  168  170 1   
   172  168  171 1   
   173  174  175 1   
   174  174  176 1   
   175  177  178 1   
   176  177  179 1   
   177  180  181 1   
   178  180  182 1   
@<TRIPOS>SUBSTRUCTURE
     1 MOL         1 TEMP              0 ****  ****    0 ROOT
