@<TRIPOS>MOLECULE
MOL
  175   173     1     0     0
SMALL
resp


@<TRIPOS>ATOM
      1 C1          0.5380    4.3790    5.6400 c3        1 MOL     -0.384011
      2 C2          0.1380    4.3460    4.1600 c         1 MOL      0.701198
      3 O1          1.0250    4.2510    3.2680 o         1 MOL     -0.540049
      4 H1          0.6270    3.3600    6.0150 hc        1 MOL      0.097972
      5 H2          1.4950    4.8910    5.7470 hc        1 MOL      0.097972
      6 H3         -0.2240    4.9100    6.2100 hc        1 MOL      0.097972
      7 N1         -1.2180    4.2880    3.8480 n         1 MOL     -0.715844
      8 C3         -1.7480    3.8290    2.5640 c3        1 MOL      0.195297
      9 C4         -1.8090    4.9640    1.5720 c         1 MOL      0.567318
     10 O2         -1.7800    6.1600    1.8650 o         1 MOL     -0.575196
     11 C5         -3.1590    3.2340    2.7870 c3        1 MOL     -0.232039
     12 C6         -3.8130    2.7240    1.5650 c         1 MOL      0.695653
     13 O3         -5.0190    2.8600    1.5250 o         1 MOL     -0.640708
     14 O4         -3.0950    2.1250    0.7100 o         1 MOL     -0.640708
     15 H4         -1.8050    4.5820    4.6140 hn        1 MOL      0.348593
     16 H5         -1.0860    3.0570    2.1730 h1        1 MOL      0.118270
     17 H6         -3.7340    3.9930    3.3210 hc        1 MOL      0.034301
     18 H7         -3.0840    2.4810    3.5700 hc        1 MOL      0.034301
     19 N2         -1.8250    4.5970    0.2530 n         1 MOL     -0.605100
     20 C7         -1.9450    5.5560   -0.8840 c3        1 MOL      0.413636
     21 C8         -3.1040    5.0970   -1.8540 c         1 MOL      0.334317
     22 O5         -3.4330    5.9070   -2.6300 o         1 MOL     -0.546686
     23 C9         -0.5700    5.4870   -1.5840 c3        1 MOL     -0.308127
     24 H8         -1.8670    3.6220   -0.0190 hn        1 MOL      0.405607
     25 H9         -2.2000    6.5800   -0.5990 h1        1 MOL     -0.003563
     26 H10        -0.4720    6.3560   -2.2300 hc        1 MOL      0.069660
     27 H11         0.2340    5.6260   -0.8540 hc        1 MOL      0.069660
     28 H12        -0.4410    4.5130   -2.0480 hc        1 MOL      0.069660
     29 N3         -3.6530    3.8590   -1.8100 n         1 MOL     -0.083685
     30 C10        -4.6630    3.4020   -2.8460 c3        1 MOL      0.019090
     31 C11        -5.8410    2.5750   -2.2920 c         1 MOL      0.293682
     32 O6         -6.8230    2.3040   -3.0280 o         1 MOL     -0.546357
     33 C12        -3.8650    2.6740   -3.9670 c3        1 MOL      0.038403
     34 C13        -2.9420    1.5650   -3.4780 c         1 MOL      0.560697
     35 O7         -1.8900    1.2070   -4.0920 o         1 MOL     -0.658179
     36 O8         -3.2990    0.9520   -2.4160 o         1 MOL     -0.658179
     37 H13        -3.5080    3.3250   -0.9610 hn        1 MOL     -0.034053
     38 H14        -5.0970    4.2470   -3.3860 h1        1 MOL      0.069113
     39 H15        -3.2090    3.3530   -4.5080 hc        1 MOL     -0.006759
     40 H16        -4.5570    2.3070   -4.7320 hc        1 MOL     -0.006759
     41 N4         -5.8200    2.1020   -1.0660 n         1 MOL      0.045001
     42 C14        -6.9640    1.4330   -0.4340 c3        1 MOL     -0.355323
     43 C15        -7.0700   -0.0040   -0.8740 c         1 MOL      0.481467
     44 O9         -8.1860   -0.6020   -0.7870 o         1 MOL     -0.612295
     45 H17        -5.1020    2.4090   -0.4270 hn        1 MOL      0.099670
     46 H18        -7.8700    1.8920   -0.8400 h1        1 MOL      0.155938
     47 H19        -6.9130    1.6080    0.6400 h1        1 MOL      0.155938
     48 N5         -6.0830   -0.6470   -1.4990 n         1 MOL     -0.062389
     49 C16        -6.0830   -2.0440   -1.9380 c3        1 MOL     -0.062960
     50 C17        -6.2180   -3.1630   -0.8590 c         1 MOL      0.500303
     51 O10        -6.1260   -4.3100   -1.2720 o         1 MOL     -0.496439
     52 C18        -4.9970   -2.3370   -2.9850 c3        1 MOL     -0.150614
     53 C19        -3.5880   -2.3470   -2.4810 c         1 MOL      0.649596
     54 N6         -2.6170   -2.6040   -3.3360 n         1 MOL     -0.684037
     55 O11        -3.3280   -2.0610   -1.3320 o         1 MOL     -0.399865
     56 H20        -5.2140   -0.1360   -1.4890 hn        1 MOL      0.058567
     57 H21        -7.0430   -2.1610   -2.4390 h1        1 MOL      0.099116
     58 H22        -5.0350   -1.5500   -3.7360 hc        1 MOL      0.052911
     59 H23        -5.1200   -3.2860   -3.5070 hc        1 MOL      0.052911
     60 H24        -2.7670   -2.8980   -4.2940 hn        1 MOL      0.347777
     61 H25        -1.7140   -2.2770   -3.0280 hn        1 MOL      0.347777
     62 N7         -6.3550   -2.7220    0.4300 n         1 MOL     -0.384943
     63 C20        -6.4160   -3.6720    1.5590 c3        1 MOL     -0.140539
     64 C21        -5.0870   -4.4060    1.8280 c         1 MOL      0.457829
     65 O12        -5.0620   -5.3810    2.5660 o         1 MOL     -0.568516
     66 H26        -6.3000   -1.7130    0.5150 hn        1 MOL      0.273772
     67 H27        -7.1820   -4.4520    1.4450 h1        1 MOL      0.112796
     68 H28        -6.7490   -3.1760    2.4760 h1        1 MOL      0.112796
     69 N8         -4.0000   -3.9100    1.2700 n         1 MOL     -0.084396
     70 C22        -2.6620   -4.5180    1.4150 c3        1 MOL     -0.143251
     71 C23        -1.5310   -3.4870    1.5820 c         1 MOL      0.423519
     72 O13        -1.6960   -2.3570    1.0780 o         1 MOL     -0.528960
     73 C24        -2.2660   -5.3700    0.2300 c3        1 MOL      0.607164
     74 C25        -2.9250   -6.6810    0.1060 c3        1 MOL     -0.424415
     75 O14        -2.5040   -4.6760   -1.0000 oh        1 MOL     -0.595938
     76 H29        -4.0360   -3.0980    0.6810 hn        1 MOL      0.011042
     77 H30        -2.5540   -5.1870    2.2670 h1        1 MOL      0.059771
     78 H31        -1.1990   -5.5230    0.3400 h1        1 MOL     -0.067977
     79 H32        -2.5650   -3.7370   -0.8640 ho        1 MOL      0.218365
     80 H33        -2.8520   -7.1280   -0.8890 hc        1 MOL      0.099388
     81 H34        -2.4780   -7.4030    0.7960 hc        1 MOL      0.099388
     82 H35        -3.9790   -6.4940    0.3250 hc        1 MOL      0.099388
     83 N9         -0.4860   -3.7180    2.3700 n         1 MOL     -0.286120
     84 C26         0.7370   -2.8670    2.3790 c3        1 MOL      0.011253
     85 C27         1.5060   -3.1790    1.1010 c         1 MOL      0.436712
     86 O15         2.0150   -4.3200    0.9370 o         1 MOL     -0.556994
     87 C28         1.6720   -3.1280    3.6200 c3        1 MOL     -0.093431
     88 C29         1.0620   -2.7030    4.9630 c3        1 MOL     -0.191127
     89 C30         3.0910   -2.5720    3.4430 c3        1 MOL     -0.009915
     90 C31         0.5030   -1.3280    4.9940 c3        1 MOL     -0.217625
     91 H36        -0.4230   -4.6460    2.7670 hn        1 MOL      0.247103
     92 H37         0.3950   -1.8360    2.3460 h1        1 MOL      0.160288
     93 H38         1.7850   -4.1950    3.7790 hc        1 MOL      0.036204
     94 H39         1.8490   -2.7070    5.7040 hc        1 MOL      0.083261
     95 H40         0.2700   -3.3910    5.2680 hc        1 MOL      0.083261
     96 H41         3.0710   -1.4780    3.4380 hc        1 MOL      0.017166
     97 H42         3.7060   -2.7320    4.3240 hc        1 MOL      0.017166
     98 H43         3.6270   -3.0100    2.5960 hc        1 MOL      0.017166
     99 H44        -0.2160   -1.2210    4.1750 hc        1 MOL      0.055051
    100 H45         0.0570   -1.2150    5.9820 hc        1 MOL      0.055051
    101 H46         1.2730   -0.5650    4.8700 hc        1 MOL      0.055051
    102 N10         1.5490   -2.2690    0.1100 n         1 MOL     -0.191019
    103 C32         2.5280   -2.2720   -0.9700 c3        1 MOL      0.021996
    104 C33         3.9150   -1.9150   -0.5590 c         1 MOL      0.505630
    105 O16         4.2200   -1.4880    0.5550 o         1 MOL     -0.356145
    106 C34         2.0030   -1.2710   -2.0310 c3        1 MOL     -0.346083
    107 C35         0.6650   -1.6950   -2.5020 c         1 MOL      0.754476
    108 O17        -0.4030   -1.2480   -2.0000 o         1 MOL     -0.677448
    109 O18         0.5810   -2.4680   -3.4300 o         1 MOL     -0.677448
    110 H47         1.0350   -1.4250    0.2910 hn        1 MOL      0.116984
    111 H48         2.6150   -3.2840   -1.3760 h1        1 MOL      0.086707
    112 H49         2.6480   -1.3740   -2.9070 hc        1 MOL      0.127455
    113 H50         1.9640   -0.2240   -1.7430 hc        1 MOL      0.127455
    114 N11         4.8850   -2.0750   -1.4400 n         1 MOL     -0.623486
    115 C36         6.3100   -1.6100   -1.3120 c3        1 MOL      0.408979
    116 C37         6.5000   -0.1230   -1.1060 c         1 MOL      0.398129
    117 O19         7.1060    0.1570   -0.0600 o         1 MOL     -0.517640
    118 C38         7.1850   -2.1830   -2.4840 c3        1 MOL     -0.179742
    119 C39         8.6750   -1.7930   -2.2820 ca        1 MOL      0.110075
    120 C40         9.4400   -2.3300   -1.1640 ca        1 MOL     -0.229782
    121 C41         9.3060   -0.8640   -3.0950 ca        1 MOL     -0.229782
    122 C42        10.8050   -1.9690   -0.9800 ca        1 MOL     -0.042444
    123 C43        10.6280   -0.4080   -2.8010 ca        1 MOL     -0.042444
    124 C44        11.3670   -0.9610   -1.7500 ca        1 MOL     -0.174453
    125 H51         4.6210   -2.3300   -2.3770 hn        1 MOL      0.280969
    126 H52         6.6410   -2.1950   -0.4440 h1        1 MOL      0.019001
    127 H53         6.8440   -1.8010   -3.4420 hc        1 MOL      0.054476
    128 H54         7.1460   -3.2760   -2.4440 hc        1 MOL      0.054476
    129 H55         9.0280   -3.1110   -0.5290 ha        1 MOL      0.138676
    130 H56         8.7510   -0.3420   -3.8520 ha        1 MOL      0.138676
    131 H57        11.4370   -2.4270   -0.2330 ha        1 MOL      0.091956
    132 H58        11.0640    0.3860   -3.3830 ha        1 MOL      0.091956
    133 H59        12.3130   -0.5160   -1.4780 ha        1 MOL      0.119863
    134 N12         5.8710    0.7760   -1.8360 n         1 MOL     -0.206914
    135 C45         5.8400    2.1880   -1.4570 c3        1 MOL      0.129839
    136 C46         5.2250    2.5570   -0.0760 c         1 MOL      0.117368
    137 O20         5.5640    3.6580    0.3850 o         1 MOL     -0.490641
    138 C47         5.0690    2.8670   -2.6220 c3        1 MOL     -0.170182
    139 C48         5.5230    2.0200   -3.8710 c3        1 MOL     -0.071425
    140 C49         5.5250    0.6530   -3.2510 c3        1 MOL      0.199966
    141 H60         6.8130    2.6810   -1.5250 h1        1 MOL      0.072637
    142 H61         3.9880    2.8010   -2.5220 hc        1 MOL      0.084880
    143 H62         5.4420    3.8880   -2.6640 hc        1 MOL      0.084880
    144 H63         4.8410    2.0200   -4.7160 hc        1 MOL      0.036667
    145 H64         6.5520    2.3070   -4.1230 hc        1 MOL      0.036667
    146 H65         4.5520    0.1790   -3.4020 h1        1 MOL     -0.041038
    147 H66         6.3270    0.0650   -3.6980 h1        1 MOL     -0.041038
    148 N13         4.4870    1.7340    0.5770 n         1 MOL      0.073980
    149 C50         3.8640    2.0970    1.8290 c3        1 MOL      0.007086
    150 C51         4.6400    1.3950    2.9690 c         1 MOL      0.460493
    151 O21         4.8620    2.0170    3.9850 o         1 MOL     -0.575610
    152 C52         2.3660    1.6100    1.8830 c3        1 MOL     -0.059917
    153 C53         1.7140    2.0830    0.5810 c3        1 MOL      0.039571
    154 C54         0.3070    1.4520    0.3940 c         1 MOL      0.361446
    155 O22        -0.5020    1.9650   -0.3820 o         1 MOL     -0.652606
    156 O23        -0.0310    0.4770    1.1280 o         1 MOL     -0.652606
    157 H67         4.2370    0.8700    0.1240 hn        1 MOL      0.040531
    158 H68         3.9510    3.1600    2.0130 h1        1 MOL      0.075187
    159 H69         1.9680    2.0730    2.7910 hc        1 MOL      0.046561
    160 H70         2.4870    0.5280    1.8610 hc        1 MOL      0.046561
    161 H71         2.2450    1.7970   -0.3300 hc        1 MOL      0.054644
    162 H72         1.5540    3.1490    0.4770 hc        1 MOL      0.054644
    163 N14         5.2130    0.2120    2.7590 n         1 MOL     -0.068453
    164 C55         6.2510   -0.3650    3.6280 c3        1 MOL     -0.070708
    165 H73         5.8400   -1.2190    4.1670 h1        1 MOL      0.040281
    166 H74         7.0940   -0.6930    3.0190 h1        1 MOL      0.040281
    167 H75         6.5880    0.3870    4.3420 h1        1 MOL      0.040281
    168 H76         5.0000   -0.3390    1.9430 hn        1 MOL      0.034707
    169 Ca1        -2.1050   -0.0920   -0.3280 Ca        1 MOL      1.581389
    170 O24        -2.1310   -0.0300    2.8600 oh        1 MOL     -0.677947
    171 H77        -2.4870    0.4350    3.6100 ho        1 MOL      0.352810
    172 H78        -1.1980    0.1760    2.8600 ho        1 MOL      0.352810
    173 O25        -4.3130   -0.4530    1.1760 oh        1 MOL     -0.677947
    174 H79        -5.1750   -0.0920    1.4030 ho        1 MOL      0.352810
    175 H80        -3.8650   -0.5550    2.0180 ho        1 MOL      0.352810
@<TRIPOS>BOND
     1    1    2 1   
     2    1    4 1   
     3    1    5 1   
     4    1    6 1   
     5    2    3 2   
     6    2    7 1   
     7    7    8 1   
     8    7   15 1   
     9    8    9 1   
    10    8   11 1   
    11    8   16 1   
    12    9   10 2   
    13    9   19 1   
    14   11   12 1   
    15   11   17 1   
    16   11   18 1   
    17   12   13 1   
    18   12   14 1   
    19   19   20 1   
    20   19   24 1   
    21   20   21 1   
    22   20   23 1   
    23   20   25 1   
    24   21   22 2   
    25   21   29 1   
    26   23   26 1   
    27   23   27 1   
    28   23   28 1   
    29   29   30 1   
    30   29   37 1   
    31   30   31 1   
    32   30   33 1   
    33   30   38 1   
    34   31   32 2   
    35   31   41 1   
    36   33   34 1   
    37   33   39 1   
    38   33   40 1   
    39   34   35 1   
    40   34   36 1   
    41   41   42 1   
    42   41   45 1   
    43   42   43 1   
    44   42   46 1   
    45   42   47 1   
    46   43   44 2   
    47   43   48 1   
    48   48   49 1   
    49   48   56 1   
    50   49   50 1   
    51   49   52 1   
    52   49   57 1   
    53   50   51 2   
    54   50   62 1   
    55   52   53 1   
    56   52   58 1   
    57   52   59 1   
    58   53   54 1   
    59   53   55 2   
    60   54   60 1   
    61   54   61 1   
    62   62   63 1   
    63   62   66 1   
    64   63   64 1   
    65   63   67 1   
    66   63   68 1   
    67   64   65 2   
    68   64   69 1   
    69   69   70 1   
    70   69   76 1   
    71   70   71 1   
    72   70   73 1   
    73   70   77 1   
    74   71   72 2   
    75   71   83 1   
    76   73   74 1   
    77   73   75 1   
    78   73   78 1   
    79   74   80 1   
    80   74   81 1   
    81   74   82 1   
    82   75   79 1   
    83   83   84 1   
    84   83   91 1   
    85   84   85 1   
    86   84   87 1   
    87   84   92 1   
    88   85   86 2   
    89   85  102 1   
    90   87   88 1   
    91   87   89 1   
    92   87   93 1   
    93   88   90 1   
    94   88   94 1   
    95   88   95 1   
    96   89   96 1   
    97   89   97 1   
    98   89   98 1   
    99   90   99 1   
   100   90  100 1   
   101   90  101 1   
   102  102  103 1   
   103  102  110 1   
   104  103  104 1   
   105  103  106 1   
   106  103  111 1   
   107  104  105 2   
   108  104  114 1   
   109  106  107 1   
   110  106  112 1   
   111  106  113 1   
   112  107  108 1   
   113  107  109 1   
   114  114  115 1   
   115  114  125 1   
   116  115  116 1   
   117  115  118 1   
   118  115  126 1   
   119  116  117 2   
   120  116  134 1   
   121  118  119 1   
   122  118  127 1   
   123  118  128 1   
   124  119  120 ar  
   125  119  121 ar  
   126  120  122 ar  
   127  120  129 1   
   128  121  123 ar  
   129  121  130 1   
   130  122  124 ar  
   131  122  131 1   
   132  123  124 ar  
   133  123  132 1   
   134  124  133 1   
   135  134  135 1   
   136  134  140 1   
   137  135  136 1   
   138  135  138 1   
   139  135  141 1   
   140  136  137 2   
   141  136  148 1   
   142  138  139 1   
   143  138  142 1   
   144  138  143 1   
   145  139  140 1   
   146  139  144 1   
   147  139  145 1   
   148  140  146 1   
   149  140  147 1   
   150  148  149 1   
   151  148  157 1   
   152  149  150 1   
   153  149  152 1   
   154  149  158 1   
   155  150  151 2   
   156  150  163 1   
   157  152  153 1   
   158  152  159 1   
   159  152  160 1   
   160  153  154 1   
   161  153  161 1   
   162  153  162 1   
   163  154  155 1   
   164  154  156 1   
   165  163  164 1   
   166  163  168 1   
   167  164  165 1   
   168  164  166 1   
   169  164  167 1   
   170  170  171 1   
   171  170  172 1   
   172  173  174 1   
   173  173  175 1   
@<TRIPOS>SUBSTRUCTURE
     1 MOL         1 TEMP              0 ****  ****    0 ROOT
