@<TRIPOS>MOLECULE
MOL
  179   176     1     0     0
SMALL
resp


@<TRIPOS>ATOM
      1 C1          2.0630    3.5900    6.3010 c3        1 MOL     -0.363795
      2 C2          1.8000    2.9040    5.0190 c         1 MOL      0.764343
      3 O1          2.7470    2.4690    4.3610 o         1 MOL     -0.599109
      4 H1          2.3170    4.6320    6.1090 hc        1 MOL      0.088535
      5 H2          1.1720    3.5430    6.9290 hc        1 MOL      0.088535
      6 H3          2.8930    3.1020    6.8120 hc        1 MOL      0.088535
      7 N1          0.5890    2.8730    4.5980 n         1 MOL     -0.583918
      8 C3          0.1650    2.6680    3.2030 c3        1 MOL     -0.077425
      9 C4          0.4120    3.8950    2.3350 c         1 MOL      0.759993
     10 O2          0.0010    5.0100    2.7290 o         1 MOL     -0.587382
     11 C5         -1.2910    2.2080    3.1020 c3        1 MOL     -0.073534
     12 C6         -1.6630    1.7280    1.6850 c         1 MOL      0.764531
     13 O3         -2.6250    0.9620    1.4540 o         1 MOL     -0.750753
     14 O4         -0.9140    1.9660    0.7010 o         1 MOL     -0.750753
     15 H4         -0.1030    2.9490    5.3340 hn        1 MOL      0.327593
     16 H5          0.8090    1.9220    2.7500 h1        1 MOL      0.064194
     17 H6         -2.0310    3.0040    3.2340 hc        1 MOL      0.037591
     18 H7         -1.5520    1.4010    3.8010 hc        1 MOL      0.037591
     19 N2          1.0510    3.7920    1.1690 n         1 MOL     -0.616595
     20 C7          1.0810    4.9040    0.1780 c3        1 MOL      0.065910
     21 C8         -0.2310    5.4110   -0.5350 c         1 MOL      0.486384
     22 O5         -0.2410    6.5820   -0.8260 o         1 MOL     -0.570054
     23 C9          2.1480    4.5460   -0.8860 c3        1 MOL     -0.067989
     24 C10         2.4660    5.7510   -1.7700 c3        1 MOL      0.050612
     25 C11         3.7910    5.6660   -2.4070 c3        1 MOL     -0.034823
     26 C12         4.0320    6.9450   -3.1730 c3        1 MOL      0.209642
     27 N3          5.1820    6.9290   -4.0610 n4        1 MOL     -0.482556
     28 H8          1.2140    2.8720    0.7840 hn        1 MOL      0.373619
     29 H9          1.4450    5.7440    0.7720 h1        1 MOL      0.103158
     30 H10         1.9490    3.6100   -1.4210 hc        1 MOL      0.067027
     31 H11         3.0390    4.4800   -0.2570 hc        1 MOL      0.067027
     32 H12         2.3090    6.7010   -1.2490 hc        1 MOL      0.003674
     33 H13         1.7830    5.6690   -2.6180 hc        1 MOL      0.003674
     34 H14         3.7170    4.8430   -3.1090 hc        1 MOL      0.023910
     35 H15         4.5210    5.5240   -1.6110 hc        1 MOL      0.023910
     36 H16         4.1550    7.7450   -2.4380 hx        1 MOL      0.034551
     37 H17         3.1100    7.2450   -3.6730 hx        1 MOL      0.034551
     38 H18         6.0520    6.6620   -3.6290 hn        1 MOL      0.352257
     39 H19         5.0050    6.4080   -4.9120 hn        1 MOL      0.352257
     40 H20         5.2530    7.8790   -4.3990 hn        1 MOL      0.352257
     41 N4         -1.2950    4.5870   -0.7450 n         1 MOL     -0.347100
     42 C13        -2.5610    5.0400   -1.2410 c3        1 MOL      0.233603
     43 C14        -3.8470    4.7870   -0.4160 c         1 MOL      0.330529
     44 O6         -4.8310    5.5370   -0.5640 o         1 MOL     -0.544775
     45 C15        -2.8390    4.4970   -2.6860 c3        1 MOL     -0.465074
     46 C16        -2.5850    2.9530   -2.8820 c         1 MOL      0.732008
     47 O7         -2.3510    2.5040   -4.0280 o         1 MOL     -0.657199
     48 O8         -2.7430    2.1940   -1.8760 o         1 MOL     -0.657199
     49 H21        -1.1800    3.6050   -0.5170 hn        1 MOL      0.280077
     50 H22        -2.5990    6.1210   -1.3970 h1        1 MOL      0.081629
     51 H23        -2.2880    5.0390   -3.4440 hc        1 MOL      0.121520
     52 H24        -3.8990    4.6390   -2.9040 hc        1 MOL      0.121520
     53 N5         -3.8300    3.8060    0.4770 n         1 MOL     -0.035968
     54 C17        -4.9800    3.4020    1.3040 c3        1 MOL     -0.146248
     55 C18        -5.8510    2.2770    0.7320 c         1 MOL      0.569647
     56 O9         -6.8900    2.0120    1.3140 o         1 MOL     -0.578613
     57 H25        -3.0130    3.2070    0.4270 hn        1 MOL     -0.074936
     58 H26        -5.6830    4.2270    1.4620 h1        1 MOL      0.104488
     59 H27        -4.6860    3.1570    2.3220 h1        1 MOL      0.104488
     60 N6         -5.5220    1.7510   -0.4700 n         1 MOL     -0.355436
     61 C19        -6.4270    0.7750   -1.2160 c3        1 MOL      0.015756
     62 C20        -7.1300   -0.4150   -0.4490 c         1 MOL      0.476990
     63 O10        -8.1470   -0.8660   -0.8920 o         1 MOL     -0.540902
     64 C21        -5.6900    0.3540   -2.5160 c3        1 MOL     -0.291958
     65 C22        -4.8170   -0.8040   -2.1760 c         1 MOL      0.634274
     66 N7         -4.7020   -1.7660   -3.0570 n         1 MOL     -0.688789
     67 O11        -4.0820   -0.8850   -1.2160 o         1 MOL     -0.692887
     68 H28        -4.7780    2.1650   -1.0150 hn        1 MOL      0.295695
     69 H29        -7.2300    1.4260   -1.5650 h1        1 MOL      0.085246
     70 H30        -5.0320    1.1850   -2.7810 hc        1 MOL      0.119906
     71 H31        -6.4000    0.0800   -3.2900 hc        1 MOL      0.119906
     72 H32        -5.1730   -1.7790   -3.9460 hn        1 MOL      0.343745
     73 H33        -4.1470   -2.5350   -2.7290 hn        1 MOL      0.343745
     74 N8         -6.5750   -0.8680    0.6670 n         1 MOL     -0.076241
     75 C23        -7.0130   -1.9800    1.4670 c3        1 MOL     -0.229832
     76 C24        -5.8190   -2.6880    2.2110 c         1 MOL      0.524911
     77 O12        -5.9820   -3.2240    3.2820 o         1 MOL     -0.540770
     78 H34        -5.7140   -0.4200    0.9370 hn        1 MOL      0.182392
     79 H35        -7.4570   -2.7000    0.7780 h1        1 MOL      0.113368
     80 H36        -7.7780   -1.6370    2.1730 h1        1 MOL      0.113368
     81 N9         -4.6310   -2.7880    1.6160 n         1 MOL     -0.299356
     82 C25        -3.4300   -3.4880    2.0070 c3        1 MOL      0.107993
     83 C26        -2.0570   -2.7680    1.7090 c         1 MOL      0.535145
     84 O13        -2.0030   -1.8300    0.9240 o         1 MOL     -0.572412
     85 C27        -3.4650   -4.9070    1.3220 c3        1 MOL     -0.342754
     86 C28        -3.4680   -4.9800   -0.1900 ca        1 MOL      0.187566
     87 C29        -2.2610   -4.8210   -0.9030 ca        1 MOL     -0.203899
     88 C30        -4.7490   -5.2570   -0.8240 ca        1 MOL     -0.203899
     89 C31        -2.3070   -4.8220   -2.3130 ca        1 MOL     -0.254116
     90 C32        -4.7550   -5.2770   -2.2210 ca        1 MOL     -0.254116
     91 C33        -3.5500   -5.0560   -2.9730 ca        1 MOL      0.278410
     92 O14        -3.6030   -4.8990   -4.3450 oh        1 MOL     -0.520698
     93 H37        -4.5710   -2.3430    0.7130 hn        1 MOL      0.222267
     94 H38        -3.4540   -3.5710    3.0960 h1        1 MOL      0.072723
     95 H39        -4.4170   -5.3620    1.5930 hc        1 MOL      0.104898
     96 H40        -2.6460   -5.5040    1.7230 hc        1 MOL      0.104898
     97 H41        -1.3740   -4.4930   -0.3790 ha        1 MOL      0.176819
     98 H42        -5.6610   -5.4250   -0.2630 ha        1 MOL      0.176819
     99 H43        -1.3880   -4.6360   -2.8480 ha        1 MOL      0.168207
    100 H44        -5.6760   -5.4760   -2.7430 ha        1 MOL      0.168207
    101 H45        -2.7570   -5.0000   -4.8040 ho        1 MOL      0.376584
    102 N10        -0.9900   -3.2280    2.3560 n         1 MOL     -0.504137
    103 C34         0.4190   -2.6740    2.2450 c3        1 MOL      0.055370
    104 C35         1.2000   -3.7050    1.3490 c         1 MOL      0.384713
    105 O15         1.2650   -4.9240    1.5480 o         1 MOL     -0.553833
    106 C36         0.9320   -2.6070    3.7270 c3        1 MOL      0.020310
    107 C37         0.1740   -1.5180    4.5280 c3        1 MOL      0.323859
    108 C38         2.5380   -2.4400    3.7680 c3        1 MOL     -0.305087
    109 C39         0.6290   -1.1930    5.9240 c3        1 MOL     -0.293913
    110 H46        -1.1070   -4.1050    2.8330 hn        1 MOL      0.298607
    111 H47         0.4260   -1.7450    1.6690 h1        1 MOL      0.058156
    112 H48         0.6570   -3.5270    4.2380 hc        1 MOL      0.020225
    113 H49        -0.8350   -1.9120    4.6930 hc        1 MOL     -0.039696
    114 H50        -0.1110   -0.6660    3.9110 hc        1 MOL     -0.039696
    115 H51         2.9010   -2.4670    4.7950 hc        1 MOL      0.086108
    116 H52         3.0550   -3.2590    3.2620 hc        1 MOL      0.086108
    117 H53         2.6260   -1.4360    3.3500 hc        1 MOL      0.086108
    118 H54         0.5110   -2.1290    6.4770 hc        1 MOL      0.053620
    119 H55         1.6550   -0.8330    5.8740 hc        1 MOL      0.053620
    120 H56        -0.0130   -0.4150    6.3250 hc        1 MOL      0.053620
    121 N11         1.8360   -3.2390    0.3170 n         1 MOL     -0.021450
    122 C40         2.7510   -4.0100   -0.5880 c3        1 MOL     -0.062927
    123 C41         4.2210   -3.8450   -0.1560 c         1 MOL      0.477729
    124 O16         4.5610   -2.8020    0.4340 o         1 MOL     -0.465227
    125 C42         2.3890   -3.5710   -2.0130 c3        1 MOL      0.336418
    126 O17         1.1770   -4.1080   -2.4770 oh        1 MOL     -0.709645
    127 H57         1.9080   -2.2660    0.0810 hn        1 MOL      0.157981
    128 H58         2.5950   -5.0840   -0.4490 h1        1 MOL      0.073680
    129 H59         3.1890   -3.7660   -2.7260 h1        1 MOL     -0.010622
    130 H60         2.3540   -2.4770   -2.1270 h1        1 MOL     -0.010622
    131 H61         1.3180   -4.7100   -3.2130 ho        1 MOL      0.436171
    132 N12         5.1650   -4.6690   -0.6360 n         1 MOL     -0.486188
    133 C43         6.6120   -4.4760   -0.3530 c3        1 MOL      0.264276
    134 C44         7.0490   -3.0910   -0.8230 c         1 MOL      0.442835
    135 O18         7.6760   -2.3910   -0.0540 o         1 MOL     -0.493997
    136 C45         7.3390   -5.5660   -1.0950 c3        1 MOL     -0.382679
    137 H62         4.8330   -5.4440   -1.1820 hn        1 MOL      0.286049
    138 H63         6.7750   -4.5910    0.7200 h1        1 MOL      0.075856
    139 H64         7.0010   -5.5640   -2.1350 hc        1 MOL      0.106525
    140 H65         8.3630   -5.2080   -1.0650 hc        1 MOL      0.106525
    141 H66         7.1140   -6.5730   -0.7390 hc        1 MOL      0.106525
    142 N13         6.7390   -2.6250   -2.0430 n         1 MOL     -0.370267
    143 C46         7.0660   -1.2920   -2.5930 c3        1 MOL      0.109129
    144 C47         6.7480   -0.1410   -1.6040 c         1 MOL      0.373662
    145 O19         7.3770    0.9130   -1.6250 o         1 MOL     -0.530464
    146 C48         6.3420   -1.1590   -3.9660 c3        1 MOL     -0.393814
    147 H67         6.3270   -3.2980   -2.6840 hn        1 MOL      0.228374
    148 H68         8.1390   -1.2310   -2.7800 h1        1 MOL      0.083494
    149 H69         6.6030   -0.2240   -4.4510 hc        1 MOL      0.117212
    150 H70         6.7700   -1.9670   -4.5450 hc        1 MOL      0.117212
    151 H71         5.2710   -1.3200   -3.9200 hc        1 MOL      0.117212
    152 N14         5.6780   -0.2260   -0.7970 n         1 MOL      0.013458
    153 C49         5.1680    0.8690   -0.0130 c3        1 MOL     -0.078529
    154 C50         5.8250    0.9600    1.3810 c         1 MOL      0.532226
    155 O20         6.2190    2.0590    1.7650 o         1 MOL     -0.543160
    156 C51         3.6510    0.7220    0.0470 c3        1 MOL      0.127371
    157 C52         2.8860    0.6260   -1.3050 c3        1 MOL     -0.052876
    158 C53         1.3570    0.4940   -1.0750 c         1 MOL      0.717411
    159 O21         0.8430   -0.2600   -0.2360 o         1 MOL     -0.711031
    160 O22         0.5960    1.1000   -1.7750 o         1 MOL     -0.711031
    161 H72         5.2450   -1.1240   -0.6270 hn        1 MOL      0.037321
    162 H73         5.4590    1.7840   -0.5280 h1        1 MOL      0.041545
    163 H74         3.2460    1.5940    0.5520 hc        1 MOL     -0.066525
    164 H75         3.4960   -0.1960    0.6010 hc        1 MOL     -0.066525
    165 H76         3.2330   -0.3260   -1.7200 hc        1 MOL     -0.032106
    166 H77         3.1140    1.5470   -1.8560 hc        1 MOL     -0.032106
    167 N15         5.8790   -0.1940    2.0030 n         1 MOL     -0.266661
    168 C54         6.7920   -0.4210    3.1730 c3        1 MOL     -0.075904
    169 H78         7.3710    0.4820    3.3630 h1        1 MOL      0.068344
    170 H79         6.2000   -0.6650    4.0550 h1        1 MOL      0.068344
    171 H80         7.4700   -1.2460    2.9500 h1        1 MOL      0.068344
    172 H81         5.5000   -0.9660    1.4680 hn        1 MOL      0.194719
    173 Ca1        -1.6140   -0.0510   -0.9150 Ca        1 MOL      1.777908
    174 O23        -1.8410   -0.1100   -3.6050 oh        1 MOL     -0.848455
    175 H82        -2.0460    0.7600   -3.9360 ho        1 MOL      0.385501
    176 H83        -2.0020   -0.7000   -4.3400 ho        1 MOL      0.385501
    177 O24        -0.5890   -2.1940   -2.2660 oh        1 MOL     -0.848455
    178 H84        -0.8800   -2.1170   -3.1820 ho        1 MOL      0.385501
    179 H85        -0.0390   -2.9740   -2.2500 ho        1 MOL      0.385501
@<TRIPOS>BOND
     1    1    2 1   
     2    1    4 1   
     3    1    5 1   
     4    1    6 1   
     5    2    3 2   
     6    2    7 1   
     7    7    8 1   
     8    7   15 1   
     9    8    9 1   
    10    8   11 1   
    11    8   16 1   
    12    9   10 2   
    13    9   19 1   
    14   11   12 1   
    15   11   17 1   
    16   11   18 1   
    17   12   13 1   
    18   12   14 1   
    19   19   20 1   
    20   19   28 1   
    21   20   21 1   
    22   20   23 1   
    23   20   29 1   
    24   21   22 2   
    25   21   41 1   
    26   23   24 1   
    27   23   30 1   
    28   23   31 1   
    29   24   25 1   
    30   24   32 1   
    31   24   33 1   
    32   25   26 1   
    33   25   34 1   
    34   25   35 1   
    35   26   27 1   
    36   26   36 1   
    37   26   37 1   
    38   27   38 1   
    39   27   39 1   
    40   27   40 1   
    41   41   42 1   
    42   41   49 1   
    43   42   43 1   
    44   42   45 1   
    45   42   50 1   
    46   43   44 2   
    47   43   53 1   
    48   45   46 1   
    49   45   51 1   
    50   45   52 1   
    51   46   47 1   
    52   46   48 1   
    53   53   54 1   
    54   53   57 1   
    55   54   55 1   
    56   54   58 1   
    57   54   59 1   
    58   55   56 2   
    59   55   60 1   
    60   60   61 1   
    61   60   68 1   
    62   61   62 1   
    63   61   64 1   
    64   61   69 1   
    65   62   63 2   
    66   62   74 1   
    67   64   65 1   
    68   64   70 1   
    69   64   71 1   
    70   65   66 1   
    71   65   67 2   
    72   66   72 1   
    73   66   73 1   
    74   74   75 1   
    75   74   78 1   
    76   75   76 1   
    77   75   79 1   
    78   75   80 1   
    79   76   77 2   
    80   76   81 1   
    81   81   82 1   
    82   81   93 1   
    83   82   83 1   
    84   82   85 1   
    85   82   94 1   
    86   83   84 2   
    87   83  102 1   
    88   85   86 1   
    89   85   95 1   
    90   85   96 1   
    91   86   87 ar  
    92   86   88 ar  
    93   87   89 ar  
    94   87   97 1   
    95   88   90 ar  
    96   88   98 1   
    97   89   91 ar  
    98   89   99 1   
    99   90   91 ar  
   100   90  100 1   
   101   91   92 1   
   102   92  101 1   
   103  102  103 1   
   104  102  110 1   
   105  103  104 1   
   106  103  106 1   
   107  103  111 1   
   108  104  105 2   
   109  104  121 1   
   110  106  107 1   
   111  106  108 1   
   112  106  112 1   
   113  107  109 1   
   114  107  113 1   
   115  107  114 1   
   116  108  115 1   
   117  108  116 1   
   118  108  117 1   
   119  109  118 1   
   120  109  119 1   
   121  109  120 1   
   122  121  122 1   
   123  121  127 1   
   124  122  123 1   
   125  122  125 1   
   126  122  128 1   
   127  123  124 2   
   128  123  132 1   
   129  125  126 1   
   130  125  129 1   
   131  125  130 1   
   132  126  131 1   
   133  132  133 1   
   134  132  137 1   
   135  133  134 1   
   136  133  136 1   
   137  133  138 1   
   138  134  135 2   
   139  134  142 1   
   140  136  139 1   
   141  136  140 1   
   142  136  141 1   
   143  142  143 1   
   144  142  147 1   
   145  143  144 1   
   146  143  146 1   
   147  143  148 1   
   148  144  145 2   
   149  144  152 1   
   150  146  149 1   
   151  146  150 1   
   152  146  151 1   
   153  152  153 1   
   154  152  161 1   
   155  153  154 1   
   156  153  156 1   
   157  153  162 1   
   158  154  155 2   
   159  154  167 1   
   160  156  157 1   
   161  156  163 1   
   162  156  164 1   
   163  157  158 1   
   164  157  165 1   
   165  157  166 1   
   166  158  159 1   
   167  158  160 1   
   168  167  168 1   
   169  167  172 1   
   170  168  169 1   
   171  168  170 1   
   172  168  171 1   
   173  174  175 1   
   174  174  176 1   
   175  177  178 1   
   176  177  179 1   
@<TRIPOS>SUBSTRUCTURE
     1 MOL         1 TEMP              0 ****  ****    0 ROOT
