@<TRIPOS>MOLECULE
MOL
  175   173     1     0     0
SMALL
resp


@<TRIPOS>ATOM
      1 C1          0.3820    4.3950    5.4620 c3        1 MOL     -0.302349
      2 C2         -0.1250    4.3190    4.0620 c         1 MOL      0.799859
      3 O1          0.6310    4.3100    3.1700 o         1 MOL     -0.570636
      4 H1         -0.0300    5.2780    5.9500 hc        1 MOL      0.064891
      5 H2          0.0750    3.5020    6.0090 hc        1 MOL      0.064891
      6 H3          1.4690    4.4600    5.4530 hc        1 MOL      0.064891
      7 N1         -1.4680    4.2460    3.7940 n         1 MOL     -0.749006
      8 C3         -2.0570    3.6900    2.5880 c3        1 MOL      0.336531
      9 C4         -2.3300    4.8420    1.5690 c         1 MOL      0.587072
     10 O2         -2.9410    5.8670    1.9460 o         1 MOL     -0.614913
     11 C5         -3.2880    2.9430    3.0370 c3        1 MOL     -0.335851
     12 C6         -4.0440    2.3280    1.8190 c         1 MOL      0.870575
     13 O3         -3.4120    2.3080    0.7900 o         1 MOL     -0.728909
     14 O4         -5.1610    1.8280    2.0070 o         1 MOL     -0.728909
     15 H4         -2.0060    4.3210    4.6380 hn        1 MOL      0.320289
     16 H5         -1.3970    2.9690    2.1060 h1        1 MOL      0.002378
     17 H6         -3.9940    3.6460    3.4620 hc        1 MOL      0.051620
     18 H7         -3.1510    2.2260    3.8450 hc        1 MOL      0.051620
     19 N2         -1.8760    4.7370    0.3110 n         1 MOL     -0.405955
     20 C7         -1.9130    5.6590   -0.8970 c3        1 MOL      0.295730
     21 C8         -2.7830    5.1580   -2.0750 c         1 MOL      0.353427
     22 O5         -2.8310    5.7520   -3.1350 o         1 MOL     -0.552634
     23 C9         -0.4310    5.8300   -1.2140 c3        1 MOL     -0.353854
     24 H8         -1.4860    3.8340    0.0840 hn        1 MOL      0.205981
     25 H9         -2.3190    6.6380   -0.6280 h1        1 MOL      0.016068
     26 H10        -0.2650    6.7970   -1.6790 hc        1 MOL      0.090256
     27 H11         0.1500    5.6150   -0.3130 hc        1 MOL      0.090256
     28 H12        -0.2130    5.0530   -1.9540 hc        1 MOL      0.090256
     29 N3         -3.4980    4.1090   -1.8300 n         1 MOL     -0.158558
     30 C10        -4.4400    3.4430   -2.8100 c3        1 MOL      0.046799
     31 C11        -5.7680    2.8630   -2.2900 c         1 MOL      0.339525
     32 O6         -6.6960    2.9230   -3.1450 o         1 MOL     -0.542479
     33 C12        -3.7590    2.3460   -3.5870 c3        1 MOL     -0.018208
     34 C13        -2.9420    1.3070   -2.7190 c         1 MOL      0.543859
     35 O7         -1.7200    1.1110   -2.7900 o         1 MOL     -0.646050
     36 O8         -3.6090    0.6670   -1.8880 o         1 MOL     -0.646050
     37 H13        -3.5060    3.8990   -0.8460 hn        1 MOL      0.081835
     38 H14        -4.6550    4.2830   -3.4740 h1        1 MOL      0.068776
     39 H15        -3.2090    2.7530   -4.4320 hc        1 MOL      0.014068
     40 H16        -4.5530    1.8340   -4.1220 hc        1 MOL      0.014068
     41 N4         -5.8180    2.3940   -1.0480 n         1 MOL     -0.131273
     42 C14        -7.0760    1.7360   -0.5020 c3        1 MOL     -0.360905
     43 C15        -7.3200    0.2760   -1.0180 c         1 MOL      0.552501
     44 O9         -8.4340   -0.1890   -0.9290 o         1 MOL     -0.582667
     45 H17        -4.9290    2.3950   -0.5660 hn        1 MOL      0.185435
     46 H18        -7.9490    2.2720   -0.8530 h1        1 MOL      0.166575
     47 H19        -7.1150    1.6050    0.5820 h1        1 MOL      0.166575
     48 N5         -6.2920   -0.4850   -1.5480 n         1 MOL     -0.147117
     49 C16        -6.4220   -1.8200   -2.1880 c3        1 MOL     -0.218079
     50 C17        -6.5400   -3.0710   -1.2920 c         1 MOL      0.469894
     51 O10        -6.6930   -4.2160   -1.7910 o         1 MOL     -0.551882
     52 C18        -5.2420   -2.0420   -3.1110 c3        1 MOL      0.092412
     53 C19        -3.7940   -2.2280   -2.5390 c         1 MOL      0.302825
     54 N6         -2.8120   -2.2890   -3.3550 n         1 MOL     -0.535752
     55 O11        -3.5550   -2.1430   -1.3350 o         1 MOL     -0.198109
     56 H20        -5.4470    0.0350   -1.7090 hn        1 MOL      0.144343
     57 H21        -7.2930   -1.8130   -2.8350 h1        1 MOL      0.136442
     58 H22        -5.2440   -1.2180   -3.8140 hc        1 MOL      0.011249
     59 H23        -5.4120   -2.8420   -3.8350 hc        1 MOL      0.011249
     60 H24        -3.0250   -2.2690   -4.3440 hn        1 MOL      0.299703
     61 H25        -1.8400   -2.3220   -3.1000 hn        1 MOL      0.299703
     62 N7         -6.4640   -3.0000    0.0430 n         1 MOL     -0.263166
     63 C20        -6.5370   -4.1290    0.9870 c3        1 MOL     -0.024118
     64 C21        -5.2270   -4.5700    1.6810 c         1 MOL      0.597019
     65 O12        -5.3120   -5.3390    2.6100 o         1 MOL     -0.577881
     66 H26        -6.1620   -2.1190    0.4290 hn        1 MOL      0.169646
     67 H27        -6.8880   -5.0330    0.5040 h1        1 MOL      0.068321
     68 H28        -7.2660   -3.9460    1.7710 h1        1 MOL      0.068321
     69 N8         -4.0350   -3.9910    1.2910 n         1 MOL     -0.423703
     70 C22        -2.7090   -4.5990    1.4420 c3        1 MOL     -0.098182
     71 C23        -1.5940   -3.5420    1.5900 c         1 MOL      0.637492
     72 O13        -1.6740   -2.4830    1.0100 o         1 MOL     -0.558579
     73 C24        -2.3380   -5.5050    0.2360 c3        1 MOL      0.331170
     74 C25        -2.6520   -7.0220    0.3410 c3        1 MOL     -0.530249
     75 O14        -3.0340   -5.0380   -0.9220 oh        1 MOL     -0.495319
     76 H29        -4.0400   -3.2860    0.5670 hn        1 MOL      0.161957
     77 H30        -2.6850   -5.2520    2.3140 h1        1 MOL      0.105599
     78 H31        -1.2920   -5.4050   -0.0540 h1        1 MOL      0.062451
     79 H32        -2.7080   -4.1400   -1.0440 ho        1 MOL      0.247473
     80 H33        -2.2430   -7.4520    1.2440 hc        1 MOL      0.142477
     81 H34        -3.7260   -7.0570    0.5400 hc        1 MOL      0.142477
     82 H35        -2.3950   -7.5670   -0.5700 hc        1 MOL      0.142477
     83 N9         -0.4220   -3.8580    2.2340 n         1 MOL     -0.731961
     84 C26         0.6230   -2.8710    2.2320 c3        1 MOL      0.317146
     85 C27         1.3560   -3.0760    0.9190 c         1 MOL      0.384047
     86 O15         1.7510   -4.1780    0.5370 o         1 MOL     -0.580018
     87 C28         1.6580   -3.0520    3.3470 c3        1 MOL      0.190216
     88 C29         1.0980   -3.2770    4.7740 c3        1 MOL     -0.185969
     89 C30         2.6910   -1.9380    3.3800 c3        1 MOL     -0.139156
     90 C31         0.2560   -2.1270    5.2930 c3        1 MOL     -0.028073
     91 H36        -0.4470   -4.6710    2.8400 hn        1 MOL      0.340507
     92 H37         0.1910   -1.8730    2.3280 h1        1 MOL     -0.032995
     93 H38         2.2750   -3.9340    3.1890 hc        1 MOL     -0.031662
     94 H39         1.9540   -3.3580    5.4540 hc        1 MOL      0.034647
     95 H40         0.5040   -4.1850    4.6480 hc        1 MOL      0.034647
     96 H41         2.3230   -0.9400    3.6450 hc        1 MOL      0.025339
     97 H42         3.4920   -2.2370    4.0540 hc        1 MOL      0.025339
     98 H43         3.1940   -1.9410    2.4150 hc        1 MOL      0.025339
     99 H44        -0.6300   -1.9080    4.6860 hc        1 MOL      0.013331
    100 H45        -0.1220   -2.4120    6.2720 hc        1 MOL      0.013331
    101 H46         0.8040   -1.1950    5.4220 hc        1 MOL      0.013331
    102 N10         1.5960   -2.0080    0.0820 n         1 MOL     -0.011359
    103 C32         2.4630   -1.8690   -1.0400 c3        1 MOL      0.102670
    104 C33         3.9680   -1.4580   -0.6960 c         1 MOL      0.250798
    105 O16         4.1090   -0.6680    0.3350 o         1 MOL     -0.231875
    106 C34         1.8650   -1.0210   -2.0940 c3        1 MOL     -0.312962
    107 C35         0.4460   -1.5160   -2.4180 c         1 MOL      0.748854
    108 O17        -0.5050   -1.3370   -1.6010 o         1 MOL     -0.682252
    109 O18         0.2280   -2.0900   -3.5470 o         1 MOL     -0.682252
    110 H47         1.1000   -1.1620    0.3500 hn        1 MOL     -0.028632
    111 H48         2.5990   -2.8470   -1.5030 h1        1 MOL      0.018473
    112 H49         2.4820   -1.0750   -2.9880 hc        1 MOL      0.080419
    113 H50         1.8630   -0.0210   -1.6460 hc        1 MOL      0.080419
    114 N11         4.9160   -1.8290   -1.5280 n         1 MOL     -0.466592
    115 C36         6.2900   -1.6310   -1.2270 c3        1 MOL      0.411715
    116 C37         6.7130   -0.1380   -0.8800 c         1 MOL      0.312951
    117 O19         7.3810    0.0350    0.1500 o         1 MOL     -0.483236
    118 C38         7.1310   -2.3270   -2.2180 c3        1 MOL     -0.322217
    119 C39         8.6160   -2.1490   -1.9640 ca        1 MOL      0.276889
    120 C40         9.1990   -2.7980   -0.8270 ca        1 MOL     -0.314317
    121 C41         9.5220   -1.3980   -2.7900 ca        1 MOL     -0.314317
    122 C42        10.5510   -2.7330   -0.5920 ca        1 MOL      0.021461
    123 C43        10.8680   -1.3960   -2.5060 ca        1 MOL      0.021461
    124 C44        11.3960   -2.0600   -1.4220 ca        1 MOL     -0.219231
    125 H51         4.6320   -2.3020   -2.3770 hn        1 MOL      0.318417
    126 H52         6.3980   -2.2280   -0.3250 h1        1 MOL      0.031460
    127 H53         7.0500   -1.7770   -3.1580 hc        1 MOL      0.075156
    128 H54         6.9560   -3.4010   -2.3020 hc        1 MOL      0.075156
    129 H55         8.6670   -3.4150   -0.1180 ha        1 MOL      0.148869
    130 H56         9.0780   -0.8490   -3.6170 ha        1 MOL      0.148869
    131 H57        10.9700   -3.2120    0.2900 ha        1 MOL      0.074404
    132 H58        11.6610   -0.9970   -3.1260 ha        1 MOL      0.074404
    133 H59        12.4510   -1.8860   -1.2340 ha        1 MOL      0.120906
    134 N12         6.3540    0.8590   -1.7200 n         1 MOL     -0.080181
    135 C45         6.6210    2.2990   -1.5700 c3        1 MOL     -0.063469
    136 C46         5.9570    2.7240   -0.2780 c         1 MOL      0.392689
    137 O20         6.3550    3.6980    0.3120 o         1 MOL     -0.509168
    138 C47         6.2630    2.9660   -2.8910 c3        1 MOL     -0.080971
    139 C48         6.2610    1.8550   -3.9000 c3        1 MOL      0.007617
    140 C49         5.6860    0.7100   -3.0270 c3        1 MOL     -0.095139
    141 H60         7.6910    2.3790   -1.4100 h1        1 MOL      0.087861
    142 H61         5.2320    3.3240   -2.8460 hc        1 MOL      0.063595
    143 H62         6.8890    3.8330   -3.1120 hc        1 MOL      0.063595
    144 H63         5.6200    2.0760   -4.7500 hc        1 MOL      0.022611
    145 H64         7.2240    1.5750   -4.3210 hc        1 MOL      0.022611
    146 H65         4.6050    0.7770   -2.8560 h1        1 MOL      0.050825
    147 H66         5.8190   -0.2700   -3.5000 h1        1 MOL      0.050825
    148 N13         4.9160    1.9760    0.1810 n         1 MOL     -0.078705
    149 C50         4.2060    2.3970    1.4360 c3        1 MOL     -0.210074
    150 C51         4.8770    1.7310    2.7350 c         1 MOL      0.447113
    151 O21         5.0900    2.4140    3.7610 o         1 MOL     -0.558099
    152 C52         2.7840    1.9430    1.5120 c3        1 MOL      0.161660
    153 C53         1.8420    2.2770    0.2790 c3        1 MOL     -0.048045
    154 C54         0.4650    1.5860    0.3380 c         1 MOL      0.454327
    155 O22        -0.4570    2.0870   -0.3440 o         1 MOL     -0.534817
    156 O23         0.2960    0.4380    0.8510 o         1 MOL     -0.534817
    157 H67         4.7050    1.0700   -0.2020 hn        1 MOL      0.120163
    158 H68         4.3330    3.4820    1.3880 h1        1 MOL      0.136244
    159 H69         2.2610    2.4420    2.3260 hc        1 MOL     -0.037445
    160 H70         2.6840    0.8760    1.6980 hc        1 MOL     -0.037445
    161 H71         2.4570    2.0190   -0.5760 hc        1 MOL      0.017157
    162 H72         1.6680    3.3500    0.2700 hc        1 MOL      0.017157
    163 N14         5.4270    0.5130    2.6600 n         1 MOL      0.021748
    164 C55         6.3080   -0.1650    3.5820 c3        1 MOL     -0.302900
    165 H73         5.9860    0.0350    4.6040 h1        1 MOL      0.102295
    166 H74         6.2740   -1.2380    3.3960 h1        1 MOL      0.102295
    167 H75         7.3270    0.1970    3.4450 h1        1 MOL      0.102295
    168 H76         5.2640    0.0140    1.8030 hn        1 MOL     -0.014755
    169 Ca1        -2.1020   -0.0580   -0.1050 Ca        1 MOL      1.625802
    170 O24        -4.3340   -0.6010    1.3980 oh        1 MOL     -0.713283
    171 H77        -4.8250    0.1990    1.5940 ho        1 MOL      0.350063
    172 H78        -4.2970   -1.0760    2.2190 ho        1 MOL      0.350063
    173 O25        -1.8070    0.2740    2.6700 oh        1 MOL     -0.713283
    174 H79        -1.8780    0.3290    3.6220 ho        1 MOL      0.350063
    175 H80        -0.8670    0.2790    2.4980 ho        1 MOL      0.350063
@<TRIPOS>BOND
     1    1    2 1   
     2    1    4 1   
     3    1    5 1   
     4    1    6 1   
     5    2    3 2   
     6    2    7 1   
     7    7    8 1   
     8    7   15 1   
     9    8    9 1   
    10    8   11 1   
    11    8   16 1   
    12    9   10 2   
    13    9   19 1   
    14   11   12 1   
    15   11   17 1   
    16   11   18 1   
    17   12   13 1   
    18   12   14 1   
    19   19   20 1   
    20   19   24 1   
    21   20   21 1   
    22   20   23 1   
    23   20   25 1   
    24   21   22 2   
    25   21   29 1   
    26   23   26 1   
    27   23   27 1   
    28   23   28 1   
    29   29   30 1   
    30   29   37 1   
    31   30   31 1   
    32   30   33 1   
    33   30   38 1   
    34   31   32 2   
    35   31   41 1   
    36   33   34 1   
    37   33   39 1   
    38   33   40 1   
    39   34   35 1   
    40   34   36 1   
    41   41   42 1   
    42   41   45 1   
    43   42   43 1   
    44   42   46 1   
    45   42   47 1   
    46   43   44 2   
    47   43   48 1   
    48   48   49 1   
    49   48   56 1   
    50   49   50 1   
    51   49   52 1   
    52   49   57 1   
    53   50   51 2   
    54   50   62 1   
    55   52   53 1   
    56   52   58 1   
    57   52   59 1   
    58   53   54 1   
    59   53   55 2   
    60   54   60 1   
    61   54   61 1   
    62   62   63 1   
    63   62   66 1   
    64   63   64 1   
    65   63   67 1   
    66   63   68 1   
    67   64   65 2   
    68   64   69 1   
    69   69   70 1   
    70   69   76 1   
    71   70   71 1   
    72   70   73 1   
    73   70   77 1   
    74   71   72 2   
    75   71   83 1   
    76   73   74 1   
    77   73   75 1   
    78   73   78 1   
    79   74   80 1   
    80   74   81 1   
    81   74   82 1   
    82   75   79 1   
    83   83   84 1   
    84   83   91 1   
    85   84   85 1   
    86   84   87 1   
    87   84   92 1   
    88   85   86 2   
    89   85  102 1   
    90   87   88 1   
    91   87   89 1   
    92   87   93 1   
    93   88   90 1   
    94   88   94 1   
    95   88   95 1   
    96   89   96 1   
    97   89   97 1   
    98   89   98 1   
    99   90   99 1   
   100   90  100 1   
   101   90  101 1   
   102  102  103 1   
   103  102  110 1   
   104  103  104 1   
   105  103  106 1   
   106  103  111 1   
   107  104  105 2   
   108  104  114 1   
   109  106  107 1   
   110  106  112 1   
   111  106  113 1   
   112  107  108 1   
   113  107  109 1   
   114  114  115 1   
   115  114  125 1   
   116  115  116 1   
   117  115  118 1   
   118  115  126 1   
   119  116  117 2   
   120  116  134 1   
   121  118  119 1   
   122  118  127 1   
   123  118  128 1   
   124  119  120 ar  
   125  119  121 ar  
   126  120  122 ar  
   127  120  129 1   
   128  121  123 ar  
   129  121  130 1   
   130  122  124 ar  
   131  122  131 1   
   132  123  124 ar  
   133  123  132 1   
   134  124  133 1   
   135  134  135 1   
   136  134  140 1   
   137  135  136 1   
   138  135  138 1   
   139  135  141 1   
   140  136  137 2   
   141  136  148 1   
   142  138  139 1   
   143  138  142 1   
   144  138  143 1   
   145  139  140 1   
   146  139  144 1   
   147  139  145 1   
   148  140  146 1   
   149  140  147 1   
   150  148  149 1   
   151  148  157 1   
   152  149  150 1   
   153  149  152 1   
   154  149  158 1   
   155  150  151 2   
   156  150  163 1   
   157  152  153 1   
   158  152  159 1   
   159  152  160 1   
   160  153  154 1   
   161  153  161 1   
   162  153  162 1   
   163  154  155 1   
   164  154  156 1   
   165  163  164 1   
   166  163  168 1   
   167  164  165 1   
   168  164  166 1   
   169  164  167 1   
   170  170  171 1   
   171  170  172 1   
   172  173  174 1   
   173  173  175 1   
@<TRIPOS>SUBSTRUCTURE
     1 MOL         1 TEMP              0 ****  ****    0 ROOT
