@<TRIPOS>MOLECULE
MOL
  172   171     1     0     0
SMALL
resp


@<TRIPOS>ATOM
      1 C1          0.2680    3.9190    5.5560 c3        1 MOL     -0.411052
      2 C2         -0.2390    3.9690    4.1230 c         1 MOL      0.635755
      3 O1          0.6260    4.1160    3.2250 o         1 MOL     -0.549602
      4 H1         -0.5750    3.7820    6.2340 hc        1 MOL      0.101637
      5 H2          0.9630    3.0880    5.6680 hc        1 MOL      0.101637
      6 H3          0.7760    4.8530    5.7950 hc        1 MOL      0.101637
      7 N1         -1.5470    3.7270    3.9020 n         1 MOL     -0.467578
      8 C3         -2.1570    3.5470    2.5880 c3        1 MOL      0.059093
      9 C4         -2.4950    4.8540    1.8460 c         1 MOL      0.542035
     10 O2         -2.7440    5.8340    2.4800 o         1 MOL     -0.557319
     11 C5         -3.4150    2.6980    2.7830 c3        1 MOL     -0.228103
     12 C6         -4.1790    2.3940    1.5090 c         1 MOL      0.618143
     13 O3         -5.3120    2.9560    1.2560 o         1 MOL     -0.640768
     14 O4         -3.6030    1.7440    0.6070 o         1 MOL     -0.640768
     15 H4         -2.1560    3.7170    4.7110 hn        1 MOL      0.288015
     16 H5         -1.3890    2.9810    2.0480 h1        1 MOL      0.114159
     17 H6         -4.0780    3.2740    3.4320 hc        1 MOL      0.040580
     18 H7         -3.1630    1.8050    3.3660 hc        1 MOL      0.040580
     19 N2         -2.6280    4.7370    0.5630 n         1 MOL     -0.362672
     20 C7         -3.1330    5.7620   -0.3930 c3        1 MOL      0.096541
     21 C8         -3.8160    5.1650   -1.6540 c         1 MOL      0.523732
     22 O5         -3.9850    5.8000   -2.6650 o         1 MOL     -0.553484
     23 C9         -2.0620    6.7860   -0.7880 c3        1 MOL     -0.228813
     24 H8         -2.4730    3.8230    0.1650 hn        1 MOL      0.304699
     25 H9         -3.8950    6.2730    0.1950 h1        1 MOL      0.065010
     26 H10        -1.7470    7.2590    0.1420 hc        1 MOL      0.063574
     27 H11        -1.1630    6.3400   -1.2350 hc        1 MOL      0.063574
     28 H12        -2.3550    7.6330   -1.4220 hc        1 MOL      0.063574
     29 N3         -4.3110    3.9010   -1.6190 n         1 MOL     -0.313103
     30 C10        -5.0620    3.2430   -2.6890 c3        1 MOL      0.055721
     31 C11        -6.3870    2.4410   -2.3080 c         1 MOL      0.350685
     32 O6         -7.2450    2.2730   -3.1240 o         1 MOL     -0.519287
     33 C12        -4.2150    2.3490   -3.5830 c3        1 MOL     -0.192719
     34 C13        -3.4260    1.2660   -2.8760 c         1 MOL      0.772429
     35 O7         -4.0850    0.4970   -2.1900 o         1 MOL     -0.755765
     36 O8         -2.1590    1.1180   -3.0120 o         1 MOL     -0.755765
     37 H13        -4.1440    3.3020   -0.8360 hn        1 MOL      0.136505
     38 H14        -5.4390    4.0140   -3.3720 h1        1 MOL      0.087264
     39 H15        -3.5880    3.0640   -4.1330 hc        1 MOL      0.055108
     40 H16        -4.8260    1.8370   -4.3170 hc        1 MOL      0.055108
     41 N4         -6.5620    2.0050   -1.0390 n         1 MOL     -0.160976
     42 C14        -7.5610    1.0450   -0.6080 c3        1 MOL     -0.200032
     43 C15        -7.4810   -0.4310   -1.0280 c         1 MOL      0.523847
     44 O9         -8.5290   -1.0900   -0.8230 o         1 MOL     -0.606066
     45 H17        -5.7740    2.1920   -0.4340 hn        1 MOL      0.159460
     46 H18        -8.5440    1.4430   -0.8870 h1        1 MOL      0.105397
     47 H19        -7.4760    1.0960    0.4740 h1        1 MOL      0.105397
     48 N5         -6.3720   -0.9910   -1.5620 n         1 MOL     -0.293140
     49 C16        -6.1740   -2.3590   -1.9860 c3        1 MOL      0.016316
     50 C17        -6.1410   -3.4810   -0.9750 c         1 MOL      0.460283
     51 O10        -6.1120   -4.6750   -1.3640 o         1 MOL     -0.538943
     52 C18        -5.0100   -2.4390   -3.0940 c3        1 MOL     -0.266256
     53 C19        -3.5810   -2.4850   -2.5920 c         1 MOL      0.731676
     54 N6         -2.7120   -2.5040   -3.5420 n         1 MOL     -0.674124
     55 O11        -3.3500   -2.4600   -1.4240 o         1 MOL     -0.614753
     56 H20        -5.5950   -0.3730   -1.7350 hn        1 MOL      0.321066
     57 H21        -7.0530   -2.7020   -2.5430 h1        1 MOL      0.098705
     58 H22        -5.1340   -1.6750   -3.8590 hc        1 MOL      0.070519
     59 H23        -5.2320   -3.4310   -3.5130 hc        1 MOL      0.070519
     60 H24        -3.0860   -2.4600   -4.4760 hn        1 MOL      0.334753
     61 H25        -1.7440   -2.4130   -3.2820 hn        1 MOL      0.334753
     62 N7         -6.1590   -3.2160    0.3290 n         1 MOL     -0.296394
     63 C20        -6.1560   -4.1910    1.3990 c3        1 MOL     -0.182684
     64 C21        -4.7290   -4.5390    1.9350 c         1 MOL      0.440562
     65 O12        -4.6720   -5.3590    2.8780 o         1 MOL     -0.562886
     66 H26        -6.0800   -2.2380    0.5720 hn        1 MOL      0.252876
     67 H27        -6.5130   -5.1830    1.1140 h1        1 MOL      0.126918
     68 H28        -6.7670   -3.8570    2.2280 h1        1 MOL      0.126918
     69 N8         -3.6570   -4.0000    1.3480 n         1 MOL     -0.166547
     70 C22        -2.2700   -4.4070    1.5640 c3        1 MOL     -0.188088
     71 C23        -1.3110   -3.2820    1.4770 c         1 MOL      0.373413
     72 O13        -1.4090   -2.3530    0.6620 o         1 MOL     -0.378941
     73 C24        -1.8560   -5.4950    0.5350 c3        1 MOL      0.559347
     74 C25        -2.5280   -6.8600    0.6850 c3        1 MOL     -0.579081
     75 O14        -2.0430   -4.9750   -0.7620 oh        1 MOL     -0.595120
     76 H29        -3.8250   -3.1920    0.7700 hn        1 MOL      0.235035
     77 H30        -2.2240   -4.7920    2.5820 h1        1 MOL      0.077837
     78 H31        -0.7940   -5.6560    0.7630 h1        1 MOL     -0.052073
     79 H32        -2.0760   -4.0180   -0.7470 ho        1 MOL      0.321739
     80 H33        -3.4470   -6.8520    0.1020 hc        1 MOL      0.151673
     81 H34        -1.8390   -7.5960    0.2660 hc        1 MOL      0.151673
     82 H35        -2.8270   -7.0060    1.7180 hc        1 MOL      0.151673
     83 N9         -0.2220   -3.3740    2.2990 n         1 MOL     -0.286803
     84 C26         1.0200   -2.5880    2.2380 c3        1 MOL     -0.215747
     85 C27         1.8250   -3.0460    0.9870 c         1 MOL      0.532869
     86 O15         2.4240   -4.0790    0.9350 o         1 MOL     -0.569919
     87 C28         1.7290   -2.7740    3.6150 c3        1 MOL      0.073131
     88 C29         0.8150   -2.1710    4.7070 c3        1 MOL      0.038226
     89 C30         3.1280   -2.0850    3.6140 c3        1 MOL     -0.001052
     90 C31         1.4210   -2.1900    6.1450 c3        1 MOL     -0.187076
     91 H36        -0.1820   -4.2640    2.7840 hn        1 MOL      0.251622
     92 H37         0.8130   -1.5210    2.1820 h1        1 MOL      0.154729
     93 H38         1.8330   -3.8140    3.9300 hc        1 MOL      0.008847
     94 H39        -0.1400   -2.6930    4.7290 hc        1 MOL     -0.002649
     95 H40         0.5900   -1.1360    4.4870 hc        1 MOL     -0.002649
     96 H41         3.0500   -1.0530    3.2680 hc        1 MOL     -0.009570
     97 H42         3.6110   -2.2500    4.5810 hc        1 MOL     -0.009570
     98 H43         3.8160   -2.6120    2.9470 hc        1 MOL     -0.009570
     99 H44         2.2750   -1.5080    6.2350 hc        1 MOL      0.041252
    100 H45         0.7390   -1.7690    6.8800 hc        1 MOL      0.041252
    101 H46         1.7630   -3.1800    6.4440 hc        1 MOL      0.041252
    102 N10         1.9170   -2.1150    0.0060 n         1 MOL     -0.192092
    103 C32         2.8900   -2.1950   -1.1400 c3        1 MOL      0.129072
    104 C33         4.2420   -1.6220   -0.7040 c         1 MOL      0.383785
    105 O16         4.3800   -0.9980    0.3730 o         1 MOL     -0.343533
    106 C34         2.2660   -1.3770   -2.3020 c3        1 MOL     -0.156614
    107 C35         0.7720   -1.5340   -2.4610 c         1 MOL      0.661511
    108 O17        -0.0050   -1.1030   -1.6250 o         1 MOL     -0.662984
    109 O18         0.4800   -2.3100   -3.4400 o         1 MOL     -0.662984
    110 H47         1.2040   -1.4110   -0.1700 hn        1 MOL      0.110786
    111 H48         2.9770   -3.2210   -1.4940 h1        1 MOL      0.053577
    112 H49         2.7570   -1.7320   -3.2090 hc        1 MOL      0.029661
    113 H50         2.4710   -0.3090   -2.3030 hc        1 MOL      0.029661
    114 N11         5.2680   -1.7650   -1.5370 n         1 MOL     -0.622762
    115 C36         6.6850   -1.3030   -1.2260 c3        1 MOL      0.289528
    116 C37         6.7830    0.2170   -1.1010 c         1 MOL      0.369936
    117 O19         7.5490    0.6280   -0.2480 o         1 MOL     -0.480239
    118 C38         7.6110   -1.8470   -2.3950 c3        1 MOL     -0.169633
    119 C39         9.0690   -1.4430   -2.3140 ca        1 MOL     -0.019048
    120 C40         9.8800   -1.9370   -1.2530 ca        1 MOL     -0.078507
    121 C41         9.6870   -0.5130   -3.1790 ca        1 MOL     -0.078507
    122 C42        11.2580   -1.5620   -1.0840 ca        1 MOL     -0.205459
    123 C43        11.0640   -0.1440   -3.0790 ca        1 MOL     -0.205459
    124 C44        11.7910   -0.6240   -1.9600 ca        1 MOL      0.015579
    125 H51         5.0650   -2.1490   -2.4550 hn        1 MOL      0.322448
    126 H52         7.0560   -1.5910   -0.2460 h1        1 MOL      0.064455
    127 H53         7.1110   -1.5500   -3.3140 hc        1 MOL      0.068385
    128 H54         7.5490   -2.9340   -2.3970 hc        1 MOL      0.068385
    129 H55         9.4190   -2.6100   -0.5390 ha        1 MOL      0.100165
    130 H56         9.0940   -0.1120   -3.9840 ha        1 MOL      0.100165
    131 H57        11.7810   -2.1130   -0.3150 ha        1 MOL      0.134525
    132 H58        11.5220    0.5600   -3.7600 ha        1 MOL      0.134525
    133 H59        12.8550   -0.4660   -1.8790 ha        1 MOL      0.064937
    134 N12         6.0020    1.1090   -1.8250 n         1 MOL     -0.015270
    135 C45         5.9590    2.5220   -1.4920 c3        1 MOL      0.017325
    136 C46         5.3880    2.7850   -0.0440 c         1 MOL      0.243366
    137 O20         5.8480    3.7210    0.6970 o         1 MOL     -0.508872
    138 C47         5.1710    3.1050   -2.6470 c3        1 MOL     -0.034450
    139 C48         5.4430    2.1540   -3.7440 c3        1 MOL      0.074495
    140 C49         5.3600    0.8120   -3.0860 c3        1 MOL     -0.215251
    141 H60         7.0040    2.8410   -1.4600 h1        1 MOL      0.044959
    142 H61         4.1030    3.1130   -2.4260 hc        1 MOL      0.038891
    143 H62         5.4450    4.1280   -2.9160 hc        1 MOL      0.038891
    144 H63         4.7430    2.2990   -4.5760 hc        1 MOL     -0.001772
    145 H64         6.4330    2.2950   -4.1580 hc        1 MOL     -0.001772
    146 H65         4.3200    0.5570   -2.8910 h1        1 MOL      0.085083
    147 H66         5.9920    0.1700   -3.7010 h1        1 MOL      0.085083
    148 N13         4.5030    1.9580    0.4290 n         1 MOL     -0.005266
    149 C50         3.8830    1.9660    1.7730 c3        1 MOL     -0.301811
    150 C51         4.7460    1.4110    2.8610 c         1 MOL      0.538931
    151 O21         4.8360    1.9980    3.9280 o         1 MOL     -0.574752
    152 C52         2.4990    1.3320    1.6890 c3        1 MOL      0.009578
    153 C53         1.6890    2.0220    0.5650 c3        1 MOL     -0.104114
    154 C54         0.2310    1.6180    0.5670 c         1 MOL      0.689698
    155 O22        -0.1110    0.5460    1.1290 o         1 MOL     -0.782520
    156 O23        -0.6510    2.3450   -0.0140 o         1 MOL     -0.782520
    157 H67         4.3440    1.1300   -0.1270 hn        1 MOL      0.128404
    158 H68         3.7360    3.0150    2.0390 h1        1 MOL      0.167647
    159 H69         1.9130    1.5960    2.5700 hc        1 MOL      0.089157
    160 H70         2.4830    0.2610    1.5380 hc        1 MOL      0.089157
    161 H71         2.1130    1.7740   -0.4060 hc        1 MOL      0.040507
    162 H72         1.6990    3.1090    0.6230 hc        1 MOL      0.040507
    163 N14         5.4550    0.3170    2.5910 n         1 MOL     -0.065058
    164 C55         6.5060   -0.2300    3.3800 c3        1 MOL     -0.205218
    165 H73         6.2150   -1.2170    3.7390 h1        1 MOL      0.067925
    166 H74         7.4080   -0.3150    2.7740 h1        1 MOL      0.067925
    167 H75         6.7000    0.4230    4.2310 h1        1 MOL      0.067925
    168 H76         5.3500   -0.1190    1.6840 hn        1 MOL      0.108814
    169 Ca1        -2.1230   -0.0240   -0.5280 Ca        1 MOL      1.720577
    170 O24        -3.8870   -0.9220    1.2700 oh        1 MOL     -1.027956
    171 H77        -3.3990   -0.4560    1.9470 ho        1 MOL      0.461834
    172 H78        -4.7900   -0.9220    1.5920 ho        1 MOL      0.461834
@<TRIPOS>BOND
     1    1    2 1   
     2    1    4 1   
     3    1    5 1   
     4    1    6 1   
     5    2    3 2   
     6    2    7 1   
     7    7    8 1   
     8    7   15 1   
     9    8    9 1   
    10    8   11 1   
    11    8   16 1   
    12    9   10 2   
    13    9   19 1   
    14   11   12 1   
    15   11   17 1   
    16   11   18 1   
    17   12   13 1   
    18   12   14 1   
    19   19   20 1   
    20   19   24 1   
    21   20   21 1   
    22   20   23 1   
    23   20   25 1   
    24   21   22 2   
    25   21   29 1   
    26   23   26 1   
    27   23   27 1   
    28   23   28 1   
    29   29   30 1   
    30   29   37 1   
    31   30   31 1   
    32   30   33 1   
    33   30   38 1   
    34   31   32 2   
    35   31   41 1   
    36   33   34 1   
    37   33   39 1   
    38   33   40 1   
    39   34   35 1   
    40   34   36 1   
    41   41   42 1   
    42   41   45 1   
    43   42   43 1   
    44   42   46 1   
    45   42   47 1   
    46   43   44 2   
    47   43   48 1   
    48   48   49 1   
    49   48   56 1   
    50   49   50 1   
    51   49   52 1   
    52   49   57 1   
    53   50   51 2   
    54   50   62 1   
    55   52   53 1   
    56   52   58 1   
    57   52   59 1   
    58   53   54 1   
    59   53   55 2   
    60   54   60 1   
    61   54   61 1   
    62   62   63 1   
    63   62   66 1   
    64   63   64 1   
    65   63   67 1   
    66   63   68 1   
    67   64   65 2   
    68   64   69 1   
    69   69   70 1   
    70   69   76 1   
    71   70   71 1   
    72   70   73 1   
    73   70   77 1   
    74   71   72 2   
    75   71   83 1   
    76   73   74 1   
    77   73   75 1   
    78   73   78 1   
    79   74   80 1   
    80   74   81 1   
    81   74   82 1   
    82   75   79 1   
    83   83   84 1   
    84   83   91 1   
    85   84   85 1   
    86   84   87 1   
    87   84   92 1   
    88   85   86 2   
    89   85  102 1   
    90   87   88 1   
    91   87   89 1   
    92   87   93 1   
    93   88   90 1   
    94   88   94 1   
    95   88   95 1   
    96   89   96 1   
    97   89   97 1   
    98   89   98 1   
    99   90   99 1   
   100   90  100 1   
   101   90  101 1   
   102  102  103 1   
   103  102  110 1   
   104  103  104 1   
   105  103  106 1   
   106  103  111 1   
   107  104  105 2   
   108  104  114 1   
   109  106  107 1   
   110  106  112 1   
   111  106  113 1   
   112  107  108 1   
   113  107  109 1   
   114  114  115 1   
   115  114  125 1   
   116  115  116 1   
   117  115  118 1   
   118  115  126 1   
   119  116  117 2   
   120  116  134 1   
   121  118  119 1   
   122  118  127 1   
   123  118  128 1   
   124  119  120 ar  
   125  119  121 ar  
   126  120  122 ar  
   127  120  129 1   
   128  121  123 ar  
   129  121  130 1   
   130  122  124 ar  
   131  122  131 1   
   132  123  124 ar  
   133  123  132 1   
   134  124  133 1   
   135  134  135 1   
   136  134  140 1   
   137  135  136 1   
   138  135  138 1   
   139  135  141 1   
   140  136  137 2   
   141  136  148 1   
   142  138  139 1   
   143  138  142 1   
   144  138  143 1   
   145  139  140 1   
   146  139  144 1   
   147  139  145 1   
   148  140  146 1   
   149  140  147 1   
   150  148  149 1   
   151  148  157 1   
   152  149  150 1   
   153  149  152 1   
   154  149  158 1   
   155  150  151 2   
   156  150  163 1   
   157  152  153 1   
   158  152  159 1   
   159  152  160 1   
   160  153  154 1   
   161  153  161 1   
   162  153  162 1   
   163  154  155 1   
   164  154  156 1   
   165  163  164 1   
   166  163  168 1   
   167  164  165 1   
   168  164  166 1   
   169  164  167 1   
   170  170  171 1   
   171  170  172 1   
@<TRIPOS>SUBSTRUCTURE
     1 MOL         1 TEMP              0 ****  ****    0 ROOT
