@<TRIPOS>MOLECULE
MOL
  175   173     1     0     0
SMALL
resp


@<TRIPOS>ATOM
      1 C1         -0.5090   -3.8950    5.4850 c3        1 MOL     -0.400068
      2 C2          0.1750   -3.6850    4.0840 c         1 MOL      0.703906
      3 O1         -0.5150   -3.8870    3.0380 o         1 MOL     -0.565016
      4 H1         -0.9090   -2.9450    5.8400 hc        1 MOL      0.103798
      5 H2         -1.3200   -4.6170    5.3900 hc        1 MOL      0.103798
      6 H3          0.2280   -4.2670    6.1980 hc        1 MOL      0.103798
      7 N1          1.4690   -3.2940    4.0510 n         1 MOL     -0.732718
      8 C3          2.2120   -3.0780    2.8110 c3        1 MOL      0.350567
      9 C4          2.4300   -4.4130    2.0190 c         1 MOL      0.480170
     10 O2          3.1910   -5.2940    2.4370 o         1 MOL     -0.574063
     11 C5          3.5990   -2.3550    2.9750 c3        1 MOL     -0.314006
     12 C6          4.2710   -1.9400    1.7250 c         1 MOL      0.819191
     13 O3          5.5280   -1.8000    1.7620 o         1 MOL     -0.707007
     14 O4          3.6360   -1.9110    0.6620 o         1 MOL     -0.707007
     15 H4          1.9100   -3.1990    4.9600 hn        1 MOL      0.347970
     16 H5          1.6110   -2.3740    2.2390 h1        1 MOL      0.022441
     17 H6          4.3310   -2.9730    3.4910 hc        1 MOL      0.046843
     18 H7          3.5090   -1.4790    3.6210 hc        1 MOL      0.046843
     19 N2          2.0160   -4.4090    0.7420 n         1 MOL     -0.244459
     20 C7          2.1370   -5.4510   -0.2730 c3        1 MOL     -0.016187
     21 C8          3.1660   -5.1560   -1.4130 c         1 MOL      0.505141
     22 O5          3.5080   -6.0450   -2.2150 o         1 MOL     -0.586133
     23 C9          0.6610   -5.7780   -0.8020 c3        1 MOL     -0.122790
     24 H8          1.5230   -3.5660    0.5140 hn        1 MOL      0.170059
     25 H9          2.3410   -6.3900    0.2560 h1        1 MOL      0.081662
     26 H10         0.5530   -6.4460   -1.6590 hc        1 MOL      0.043939
     27 H11         0.0820   -6.2070    0.0190 hc        1 MOL      0.043939
     28 H12         0.1850   -4.8640   -1.1490 hc        1 MOL      0.043939
     29 N3          3.7420   -3.9400   -1.5180 n         1 MOL     -0.419010
     30 C10         4.6660   -3.5510   -2.6240 c3        1 MOL      0.118533
     31 C11         5.9100   -2.7580   -2.3050 c         1 MOL      0.363834
     32 O6          6.7670   -2.5890   -3.1970 o         1 MOL     -0.529892
     33 C12         3.8660   -2.8470   -3.7890 c3        1 MOL      0.018279
     34 C13         3.1480   -1.5990   -3.2860 c         1 MOL      0.583056
     35 O7          3.4110   -1.0890   -2.2180 o         1 MOL     -0.671275
     36 O8          2.2560   -1.1920   -4.1020 o         1 MOL     -0.671275
     37 H13         3.3680   -3.2500   -0.8760 hn        1 MOL      0.309743
     38 H14         5.0440   -4.4910   -3.0350 h1        1 MOL      0.065236
     39 H15         3.1680   -3.6000   -4.1340 hc        1 MOL     -0.007958
     40 H16         4.5840   -2.8060   -4.6100 hc        1 MOL     -0.007958
     41 N4          6.0600   -2.3710   -1.0450 n         1 MOL     -0.277079
     42 C14         7.3110   -1.6640   -0.6170 c3        1 MOL      0.090561
     43 C15         7.4460   -0.2440   -1.0700 c         1 MOL      0.347699
     44 O9          8.5310    0.1030   -1.5220 o         1 MOL     -0.551324
     45 H17         5.3410   -2.4770   -0.3500 hn        1 MOL      0.156739
     46 H18         8.2130   -2.2280   -0.8730 h1        1 MOL      0.047376
     47 H19         7.3890   -1.6470    0.4730 h1        1 MOL      0.047376
     48 N5          6.3600    0.5200   -1.1660 n         1 MOL     -0.176109
     49 C16         6.3420    1.8970   -1.7770 c3        1 MOL     -0.007198
     50 C17         6.1500    3.1010   -0.7350 c         1 MOL      0.381056
     51 O10         6.0870    4.2840   -1.1580 o         1 MOL     -0.527429
     52 C18         5.3610    2.0060   -2.9220 c3        1 MOL      0.117829
     53 C19         3.9210    2.1550   -2.5320 c         1 MOL      0.286394
     54 N6          3.0400    2.3760   -3.4380 n         1 MOL     -0.523313
     55 O11         3.5270    1.9940   -1.4470 o         1 MOL     -0.470438
     56 H20         5.4410    0.2030   -0.9340 hn        1 MOL      0.170809
     57 H21         7.3130    2.1760   -2.1720 h1        1 MOL      0.089371
     58 H22         5.4500    1.1020   -3.5360 hc        1 MOL      0.013396
     59 H23         5.7380    2.7290   -3.6380 hc        1 MOL      0.013396
     60 H24         3.4110    2.3330   -4.3750 hn        1 MOL      0.319602
     61 H25         2.1020    2.4510   -3.0740 hn        1 MOL      0.319602
     62 N7          6.0970    2.7740    0.5260 n         1 MOL     -0.188169
     63 C20         6.0480    3.7520    1.6170 c3        1 MOL     -0.381967
     64 C21         4.6860    4.4160    1.8480 c         1 MOL      0.550745
     65 O12         4.6890    5.0920    2.8830 o         1 MOL     -0.587108
     66 H26         5.9950    1.7930    0.7680 hn        1 MOL      0.178575
     67 H27         6.7950    4.5360    1.5090 h1        1 MOL      0.171545
     68 H28         6.2780    3.1520    2.4880 h1        1 MOL      0.171545
     69 N8          3.6510    4.3240    1.0270 n         1 MOL     -0.193688
     70 C22         2.2570    4.8140    1.2030 c3        1 MOL     -0.154749
     71 C23         1.2760    3.6170    1.3590 c         1 MOL      0.397090
     72 O13         1.5020    2.5450    0.7900 o         1 MOL     -0.523120
     73 C24         1.8130    5.6000   -0.0620 c3        1 MOL      0.524408
     74 C25         2.5800    6.9280   -0.3190 c3        1 MOL     -0.282807
     75 O14         2.0170    4.7780   -1.1920 oh        1 MOL     -0.596904
     76 H29         3.7140    3.6550    0.2750 hn        1 MOL      0.213249
     77 H30         2.2240    5.4700    2.0660 h1        1 MOL      0.086868
     78 H31         0.7490    5.7860    0.0310 h1        1 MOL     -0.048181
     79 H32         1.9820    3.8840   -0.8560 ho        1 MOL      0.362354
     80 H33         2.4730    7.4060    0.6440 hc        1 MOL      0.059771
     81 H34         3.6190    6.8270   -0.6540 hc        1 MOL      0.059771
     82 H35         1.9330    7.5050   -0.9790 hc        1 MOL      0.059771
     83 N9          0.1310    3.8470    2.0440 n         1 MOL     -0.354727
     84 C26        -1.0160    2.9990    1.9070 c3        1 MOL      0.000903
     85 C27        -1.7920    3.2370    0.5750 c         1 MOL      0.486966
     86 O15        -2.3850    4.2990    0.2710 o         1 MOL     -0.581884
     87 C28        -1.8920    3.1190    3.1950 c3        1 MOL      0.009759
     88 C29        -1.2700    2.2990    4.3570 c3        1 MOL      0.119221
     89 C30        -3.2810    2.5430    2.9180 c3        1 MOL     -0.098705
     90 C31        -1.8760    2.4100    5.8040 c3        1 MOL     -0.118289
     91 H36         0.1260    4.6940    2.5970 hn        1 MOL      0.256735
     92 H37        -0.7060    1.9540    1.8380 h1        1 MOL      0.041335
     93 H38        -1.9660    4.1740    3.4650 hc        1 MOL      0.010757
     94 H39        -0.2300    2.6280    4.4830 hc        1 MOL     -0.032549
     95 H40        -1.2610    1.2500    4.0510 hc        1 MOL     -0.032549
     96 H41        -3.8850    2.6400    3.8150 hc        1 MOL      0.014126
     97 H42        -3.7800    3.0260    2.0830 hc        1 MOL      0.014126
     98 H43        -3.1210    1.4840    2.6960 hc        1 MOL      0.014126
     99 H44        -1.3630    1.7040    6.4640 hc        1 MOL      0.020868
    100 H45        -1.7020    3.4370    6.1460 hc        1 MOL      0.020868
    101 H46        -2.9340    2.1560    5.8800 hc        1 MOL      0.020868
    102 N10        -1.7320    2.1570   -0.2380 n         1 MOL     -0.087477
    103 C32        -2.5840    2.0290   -1.4510 c3        1 MOL     -0.072744
    104 C33        -3.8650    1.3950   -0.9840 c         1 MOL      0.566171
    105 O16        -4.0820    0.9560    0.1530 o         1 MOL     -0.351055
    106 C34        -1.8580    1.1700   -2.4730 c3        1 MOL     -0.144058
    107 C35        -0.3720    1.5140   -2.5980 c         1 MOL      0.599706
    108 O17         0.3910    1.2760   -1.6690 o         1 MOL     -0.643412
    109 O18         0.0560    1.9900   -3.6980 o         1 MOL     -0.643412
    110 H47        -1.0980    1.3890   -0.1050 hn        1 MOL      0.119118
    111 H48        -2.7690    2.9820   -1.9500 h1        1 MOL      0.091723
    112 H49        -2.3100    1.1400   -3.4630 hc        1 MOL      0.070445
    113 H50        -1.8670    0.1290   -2.1420 hc        1 MOL      0.070445
    114 N11        -4.8070    1.4550   -1.8610 n         1 MOL     -0.906972
    115 C36        -6.2500    1.2730   -1.5250 c3        1 MOL      0.669055
    116 C37        -6.5720   -0.1550   -1.1490 c         1 MOL      0.205875
    117 O19        -7.3620   -0.3260   -0.1640 o         1 MOL     -0.479796
    118 C38        -7.1990    1.8030   -2.6250 c3        1 MOL     -0.126438
    119 C39        -8.6770    1.6910   -2.4260 ca        1 MOL      0.092463
    120 C40        -9.0900    2.1490   -1.1200 ca        1 MOL     -0.222311
    121 C41        -9.5750    1.0330   -3.3200 ca        1 MOL     -0.222311
    122 C42       -10.3770    1.7790   -0.6880 ca        1 MOL     -0.069834
    123 C43       -10.8650    0.5990   -2.8690 ca        1 MOL     -0.069834
    124 C44       -11.2370    1.0560   -1.5810 ca        1 MOL     -0.143598
    125 H51        -4.5960    1.8960   -2.7440 hn        1 MOL      0.374959
    126 H52        -6.4290    1.8240   -0.6090 h1        1 MOL     -0.016876
    127 H53        -6.8480    1.3130   -3.5270 hc        1 MOL      0.018876
    128 H54        -6.9310    2.8470   -2.7580 hc        1 MOL      0.018876
    129 H55        -8.4350    2.7260   -0.4900 ha        1 MOL      0.133555
    130 H56        -9.2070    0.5950   -4.2430 ha        1 MOL      0.133555
    131 H57       -10.6890    2.0150    0.3190 ha        1 MOL      0.113850
    132 H58       -11.5300    0.0200   -3.4980 ha        1 MOL      0.113850
    133 H59       -12.2390    0.8420   -1.2590 ha        1 MOL      0.094539
    134 N12        -5.9660   -1.1750   -1.7110 n         1 MOL      0.035114
    135 C45        -6.1790   -2.5110   -1.1790 c3        1 MOL     -0.052391
    136 C46        -5.5900   -2.8180    0.2020 c         1 MOL      0.303990
    137 O20        -5.9060   -3.7580    0.8540 o         1 MOL     -0.494758
    138 C47        -5.8370   -3.5010   -2.2650 c3        1 MOL     -0.061857
    139 C48        -5.9670   -2.6930   -3.5210 c3        1 MOL      0.000792
    140 C49        -5.6010   -1.3050   -3.1230 c3        1 MOL      0.050636
    141 H60        -7.2410   -2.5370   -0.9060 h1        1 MOL      0.068830
    142 H61        -4.8070   -3.8440   -2.1930 hc        1 MOL      0.053459
    143 H62        -6.4810   -4.3800   -2.3840 hc        1 MOL      0.053459
    144 H63        -5.2570   -3.0930   -4.2490 hc        1 MOL      0.013915
    145 H64        -6.9780   -2.8240   -3.9120 hc        1 MOL      0.013915
    146 H65        -4.5480   -1.0480   -3.2630 h1        1 MOL      0.003244
    147 H66        -6.2460   -0.7390   -3.8000 h1        1 MOL      0.003244
    148 N13        -4.5700   -2.0670    0.5730 n         1 MOL     -0.052033
    149 C50        -3.8880   -2.1770    1.9280 c3        1 MOL     -0.094269
    150 C51        -4.7070   -1.4960    3.0600 c         1 MOL      0.457151
    151 O21        -4.9310   -1.9200    4.1490 o         1 MOL     -0.544969
    152 C52        -2.4630   -1.5370    1.8370 c3        1 MOL     -0.033145
    153 C53        -1.6460   -2.1770    0.6770 c3        1 MOL      0.052985
    154 C54        -0.3310   -1.4380    0.3610 c         1 MOL      0.560024
    155 O22        -0.0360   -0.3400    0.9480 o         1 MOL     -0.657474
    156 O23         0.4590   -1.8600   -0.5000 o         1 MOL     -0.657474
    157 H67        -4.3930   -1.1940    0.0970 hn        1 MOL      0.065912
    158 H68        -3.9070   -3.2370    2.1850 h1        1 MOL      0.109299
    159 H69        -1.8460   -1.8300    2.6780 hc        1 MOL      0.027617
    160 H70        -2.5440   -0.4610    1.7160 hc        1 MOL      0.027617
    161 H71        -2.2750   -2.1730   -0.2110 hc        1 MOL     -0.005951
    162 H72        -1.4130   -3.2190    0.8900 hc        1 MOL     -0.005951
    163 N14        -5.3270   -0.3530    2.6490 n         1 MOL      0.009510
    164 C55        -6.3600    0.3520    3.3880 c3        1 MOL     -0.271398
    165 H73        -5.9140    1.1870    3.9280 h1        1 MOL      0.089305
    166 H74        -7.1110    0.7290    2.6940 h1        1 MOL      0.089305
    167 H75        -6.8310   -0.3290    4.0970 h1        1 MOL      0.089305
    168 H76        -5.1470   -0.0060    1.7170 hn        1 MOL      0.040570
    169 Ca1         2.2740    0.0810   -0.3260 Ca        1 MOL      1.660122
    170 O24         4.0570    0.8440    1.7150 oh        1 MOL     -0.713621
    171 H77         4.8960    0.9350    2.1740 ho        1 MOL      0.358382
    172 H78         3.4080    0.7470    2.4110 ho        1 MOL      0.358382
    173 O25         1.6920    0.2840    2.8710 oh        1 MOL     -0.713621
    174 H79         0.8180    0.0310    2.5540 ho        1 MOL      0.358382
    175 H80         1.6330    0.1990    3.8200 ho        1 MOL      0.358382
@<TRIPOS>BOND
     1    1    2 1   
     2    1    4 1   
     3    1    5 1   
     4    1    6 1   
     5    2    3 2   
     6    2    7 1   
     7    7    8 1   
     8    7   15 1   
     9    8    9 1   
    10    8   11 1   
    11    8   16 1   
    12    9   10 2   
    13    9   19 1   
    14   11   12 1   
    15   11   17 1   
    16   11   18 1   
    17   12   13 1   
    18   12   14 1   
    19   19   20 1   
    20   19   24 1   
    21   20   21 1   
    22   20   23 1   
    23   20   25 1   
    24   21   22 2   
    25   21   29 1   
    26   23   26 1   
    27   23   27 1   
    28   23   28 1   
    29   29   30 1   
    30   29   37 1   
    31   30   31 1   
    32   30   33 1   
    33   30   38 1   
    34   31   32 2   
    35   31   41 1   
    36   33   34 1   
    37   33   39 1   
    38   33   40 1   
    39   34   35 1   
    40   34   36 1   
    41   41   42 1   
    42   41   45 1   
    43   42   43 1   
    44   42   46 1   
    45   42   47 1   
    46   43   44 2   
    47   43   48 1   
    48   48   49 1   
    49   48   56 1   
    50   49   50 1   
    51   49   52 1   
    52   49   57 1   
    53   50   51 2   
    54   50   62 1   
    55   52   53 1   
    56   52   58 1   
    57   52   59 1   
    58   53   54 1   
    59   53   55 2   
    60   54   60 1   
    61   54   61 1   
    62   62   63 1   
    63   62   66 1   
    64   63   64 1   
    65   63   67 1   
    66   63   68 1   
    67   64   65 2   
    68   64   69 1   
    69   69   70 1   
    70   69   76 1   
    71   70   71 1   
    72   70   73 1   
    73   70   77 1   
    74   71   72 2   
    75   71   83 1   
    76   73   74 1   
    77   73   75 1   
    78   73   78 1   
    79   74   80 1   
    80   74   81 1   
    81   74   82 1   
    82   75   79 1   
    83   83   84 1   
    84   83   91 1   
    85   84   85 1   
    86   84   87 1   
    87   84   92 1   
    88   85   86 2   
    89   85  102 1   
    90   87   88 1   
    91   87   89 1   
    92   87   93 1   
    93   88   90 1   
    94   88   94 1   
    95   88   95 1   
    96   89   96 1   
    97   89   97 1   
    98   89   98 1   
    99   90   99 1   
   100   90  100 1   
   101   90  101 1   
   102  102  103 1   
   103  102  110 1   
   104  103  104 1   
   105  103  106 1   
   106  103  111 1   
   107  104  105 2   
   108  104  114 1   
   109  106  107 1   
   110  106  112 1   
   111  106  113 1   
   112  107  108 1   
   113  107  109 1   
   114  114  115 1   
   115  114  125 1   
   116  115  116 1   
   117  115  118 1   
   118  115  126 1   
   119  116  117 2   
   120  116  134 1   
   121  118  119 1   
   122  118  127 1   
   123  118  128 1   
   124  119  120 ar  
   125  119  121 ar  
   126  120  122 ar  
   127  120  129 1   
   128  121  123 ar  
   129  121  130 1   
   130  122  124 ar  
   131  122  131 1   
   132  123  124 ar  
   133  123  132 1   
   134  124  133 1   
   135  134  135 1   
   136  134  140 1   
   137  135  136 1   
   138  135  138 1   
   139  135  141 1   
   140  136  137 2   
   141  136  148 1   
   142  138  139 1   
   143  138  142 1   
   144  138  143 1   
   145  139  140 1   
   146  139  144 1   
   147  139  145 1   
   148  140  146 1   
   149  140  147 1   
   150  148  149 1   
   151  148  157 1   
   152  149  150 1   
   153  149  152 1   
   154  149  158 1   
   155  150  151 2   
   156  150  163 1   
   157  152  153 1   
   158  152  159 1   
   159  152  160 1   
   160  153  154 1   
   161  153  161 1   
   162  153  162 1   
   163  154  155 1   
   164  154  156 1   
   165  163  164 1   
   166  163  168 1   
   167  164  165 1   
   168  164  166 1   
   169  164  167 1   
   170  170  171 1   
   171  170  172 1   
   172  173  174 1   
   173  173  175 1   
@<TRIPOS>SUBSTRUCTURE
     1 MOL         1 TEMP              0 ****  ****    0 ROOT
