@<TRIPOS>MOLECULE
MOL
  179   176     1     0     0
SMALL
resp


@<TRIPOS>ATOM
      1 C1          2.3460    2.4060    5.4420 c3        1 MOL     -0.264957
      2 C2          1.7110    2.2890    4.0610 c         1 MOL      0.645215
      3 O1          2.5040    2.4680    3.0730 o         1 MOL     -0.625722
      4 H1          1.7750    3.1110    6.0460 hc        1 MOL      0.073634
      5 H2          2.3460    1.4290    5.9270 hc        1 MOL      0.073634
      6 H3          3.3720    2.7620    5.3430 hc        1 MOL      0.073634
      7 N1          0.4130    2.0300    3.9070 n         1 MOL     -0.430677
      8 C3         -0.3130    2.0530    2.6800 c3        1 MOL      0.055141
      9 C4         -0.4030    3.4770    2.0310 c         1 MOL      0.365128
     10 O2         -1.2650    4.2580    2.4660 o         1 MOL     -0.488690
     11 C5         -1.7270    1.4840    3.0000 c3        1 MOL     -0.407399
     12 C6         -2.6270    1.2590    1.7570 c         1 MOL      0.848702
     13 O3         -2.1040    1.3190    0.6110 o         1 MOL     -0.766672
     14 O4         -3.8360    0.9580    1.9000 o         1 MOL     -0.766672
     15 H4         -0.1060    1.8390    4.7570 hn        1 MOL      0.286554
     16 H5          0.2780    1.4780    1.9630 h1        1 MOL      0.085579
     17 H6         -2.3430    2.1980    3.5650 hc        1 MOL      0.139598
     18 H7         -1.6270    0.5000    3.4570 hc        1 MOL      0.139598
     19 N2          0.3210    3.7270    0.9500 n         1 MOL     -0.078791
     20 C7          0.7030    5.0110    0.4300 c3        1 MOL     -0.044164
     21 C8         -0.3810    5.7340   -0.3790 c         1 MOL      0.463265
     22 O5         -0.2710    6.9220   -0.5760 o         1 MOL     -0.565045
     23 C9          1.9220    4.9190   -0.5450 c3        1 MOL     -0.218808
     24 C10         3.2310    5.1390    0.3250 c3        1 MOL      0.142864
     25 C11         4.4990    5.1090   -0.5530 c3        1 MOL      0.025087
     26 C12         5.8390    5.4440    0.1050 c3        1 MOL      0.082857
     27 N3          6.7850    5.6040   -1.0280 n4        1 MOL     -0.330526
     28 H8          0.8670    2.9320    0.6460 hn        1 MOL      0.254159
     29 H9          0.8870    5.6850    1.2570 h1        1 MOL      0.082382
     30 H10         1.9750    5.6970   -1.3040 hc        1 MOL      0.073657
     31 H11         1.9200    3.9530   -1.0440 hc        1 MOL      0.073657
     32 H12         3.2910    4.4260    1.1500 hc        1 MOL     -0.002346
     33 H13         3.1250    6.1340    0.7540 hc        1 MOL     -0.002346
     34 H14         4.3240    5.8470   -1.3310 hc        1 MOL     -0.012999
     35 H15         4.5500    4.1270   -1.0350 hc        1 MOL     -0.012999
     36 H16         6.1360    4.6180    0.7400 hx        1 MOL      0.068625
     37 H17         5.7520    6.3150    0.7560 hx        1 MOL      0.068625
     38 H18         6.5540    6.4160   -1.5840 hn        1 MOL      0.314373
     39 H19         7.6770    5.9240   -0.6670 hn        1 MOL      0.314373
     40 H20         6.8050    4.8550   -1.6940 hn        1 MOL      0.314373
     41 N4         -1.3610    5.0260   -0.9260 n         1 MOL     -0.168340
     42 C13        -2.5870    5.4940   -1.4460 c3        1 MOL      0.012907
     43 C14        -3.8380    5.1120   -0.5750 c         1 MOL      0.367123
     44 O6         -4.9140    5.6090   -0.8940 o         1 MOL     -0.528067
     45 C15        -2.7960    4.9480   -2.9040 c3        1 MOL     -0.065163
     46 C16        -2.7150    3.4010   -3.0850 c         1 MOL      0.717637
     47 O7         -2.7330    3.0260   -4.2620 o         1 MOL     -0.700131
     48 O8         -2.5450    2.6850   -2.0610 o         1 MOL     -0.700131
     49 H21        -1.2640    4.0280   -0.9860 hn        1 MOL      0.106453
     50 H22        -2.5380    6.5700   -1.5920 h1        1 MOL      0.087338
     51 H23        -1.9360    5.3610   -3.4310 hc        1 MOL      0.013058
     52 H24        -3.6970    5.3570   -3.3640 hc        1 MOL      0.013058
     53 N5         -3.6780    4.3140    0.4730 n         1 MOL      0.022680
     54 C17        -4.7470    3.8400    1.3310 c3        1 MOL     -0.191909
     55 C18        -5.7650    2.8680    0.6380 c         1 MOL      0.516611
     56 O9         -6.9640    2.8680    1.0390 o         1 MOL     -0.580331
     57 H25        -2.7770    3.9160    0.7130 hn        1 MOL     -0.055178
     58 H26        -5.3530    4.7100    1.5930 h1        1 MOL      0.110484
     59 H27        -4.3400    3.3640    2.2250 h1        1 MOL      0.110484
     60 N6         -5.3540    2.0890   -0.3730 n         1 MOL     -0.149036
     61 C19        -6.3570    1.3040   -1.0660 c3        1 MOL     -0.037141
     62 C20        -6.7450    0.0330   -0.3600 c         1 MOL      0.326335
     63 O10        -7.6150   -0.7390   -0.7620 o         1 MOL     -0.512857
     64 C21        -5.8790    1.0550   -2.5080 c3        1 MOL     -0.390833
     65 C22        -4.8850   -0.1130   -2.5840 c         1 MOL      0.733924
     66 N7         -5.2570   -1.0800   -3.3410 n         1 MOL     -0.716129
     67 O11        -3.8040   -0.0450   -2.0030 o         1 MOL     -0.697253
     68 H28        -4.3710    2.0840   -0.6070 hn        1 MOL      0.129701
     69 H29        -7.2370    1.9390   -1.0460 h1        1 MOL      0.147589
     70 H30        -5.3210    1.9130   -2.9080 hc        1 MOL      0.151702
     71 H31        -6.7240    0.7920   -3.1440 hc        1 MOL      0.151702
     72 H32        -6.1170   -1.1100   -3.8710 hn        1 MOL      0.352232
     73 H33        -4.6540   -1.8910   -3.4480 hn        1 MOL      0.352232
     74 N8         -6.2120   -0.2280    0.8580 n         1 MOL     -0.056905
     75 C23        -6.4560   -1.3650    1.7090 c3        1 MOL     -0.308781
     76 C24        -5.2480   -2.3480    1.8680 c         1 MOL      0.803671
     77 O12        -5.2860   -3.1270    2.8340 o         1 MOL     -0.638828
     78 H34        -5.5840    0.5030    1.1480 hn        1 MOL      0.246293
     79 H35        -7.2250   -2.0500    1.3540 h1        1 MOL      0.120371
     80 H36        -6.7080   -1.0450    2.7240 h1        1 MOL      0.120371
     81 N9         -4.1680   -2.1590    1.1780 n         1 MOL     -0.527477
     82 C25        -3.1610   -3.2380    1.0010 c3        1 MOL     -0.021473
     83 C26        -1.7880   -2.5740    1.0350 c         1 MOL      0.690449
     84 O13        -1.4600   -1.7070    0.2090 o         1 MOL     -0.707439
     85 C27        -3.3990   -3.9090   -0.3590 c3        1 MOL      0.038959
     86 C28        -4.7080   -4.6460   -0.4510 ca        1 MOL      0.083463
     87 C29        -5.7190   -4.1500   -1.3280 ca        1 MOL     -0.301778
     88 C30        -4.9960   -5.8040    0.3340 ca        1 MOL     -0.301778
     89 C31        -6.9610   -4.8910   -1.4460 ca        1 MOL     -0.061436
     90 C32        -6.2560   -6.3840    0.2360 ca        1 MOL     -0.061436
     91 C33        -7.1680   -6.0440   -0.7010 ca        1 MOL      0.163760
     92 O14        -8.3820   -6.6670   -0.7270 oh        1 MOL     -0.469316
     93 H37        -4.1300   -1.4120    0.5070 hn        1 MOL      0.332856
     94 H38        -3.2350   -3.9720    1.8080 h1        1 MOL      0.110416
     95 H39        -2.5840   -4.5640   -0.6650 hc        1 MOL     -0.001831
     96 H40        -3.3790   -3.1350   -1.1210 hc        1 MOL     -0.001831
     97 H41        -5.5370   -3.2580   -1.9060 ha        1 MOL      0.153390
     98 H42        -4.1950   -6.2220    0.9240 ha        1 MOL      0.153390
     99 H43        -7.8030   -4.5640   -2.0380 ha        1 MOL      0.111370
    100 H44        -6.5180   -7.2320    0.8470 ha        1 MOL      0.111370
    101 H45        -8.4570   -7.3350   -0.0380 ho        1 MOL      0.367271
    102 N10        -0.8550   -3.1040    1.7810 n         1 MOL     -0.521954
    103 C34         0.5710   -2.8440    1.8470 c3        1 MOL      0.003042
    104 C35         1.3790   -3.7400    0.9200 c         1 MOL      0.407404
    105 O15         1.3890   -5.0040    1.1730 o         1 MOL     -0.535079
    106 C36         1.1270   -2.8210    3.2110 c3        1 MOL      0.194108
    107 C37         0.2980   -2.1000    4.3230 c3        1 MOL      0.198785
    108 C38         2.4680   -2.0480    3.1770 c3        1 MOL     -0.350471
    109 C39         0.8250   -2.3180    5.7950 c3        1 MOL     -0.273505
    110 H46        -1.1610   -3.8690    2.3670 hn        1 MOL      0.275546
    111 H47         0.7550   -1.8110    1.5550 h1        1 MOL      0.146908
    112 H48         1.3510   -3.8260    3.5880 hc        1 MOL      0.000702
    113 H49        -0.7320   -2.4530    4.2350 hc        1 MOL     -0.057481
    114 H50         0.2120   -1.0310    4.1610 hc        1 MOL     -0.057481
    115 H51         3.2100   -2.5350    2.5490 hc        1 MOL      0.061539
    116 H52         2.3450   -1.0370    2.7840 hc        1 MOL      0.061539
    117 H53         2.9620   -2.0490    4.1470 hc        1 MOL      0.061539
    118 H54         0.8830   -3.3700    6.0600 hc        1 MOL      0.067396
    119 H55         1.8120   -1.8850    5.9720 hc        1 MOL      0.067396
    120 H56         0.1000   -1.8470    6.4620 hc        1 MOL      0.067396
    121 N11         2.1070   -3.1420   -0.0420 n         1 MOL     -0.209529
    122 C40         2.9340   -3.8910   -1.0020 c3        1 MOL     -0.026282
    123 C41         4.3900   -3.6870   -0.5710 c         1 MOL      0.453735
    124 O16         4.7960   -2.7710    0.0870 o         1 MOL     -0.322745
    125 C42         2.6470   -3.4170   -2.4530 c3        1 MOL      0.004395
    126 O17         3.1590   -2.1480   -2.7820 oh        1 MOL     -0.588906
    127 H57         1.9110   -2.1760   -0.2490 hn        1 MOL      0.318680
    128 H58         2.6740   -4.9510   -0.9170 h1        1 MOL      0.057452
    129 H59         1.5560   -3.4230   -2.5040 h1        1 MOL      0.075456
    130 H60         3.0790   -4.1270   -3.1580 h1        1 MOL      0.075456
    131 H61         2.6140   -1.4180   -2.4730 ho        1 MOL      0.405654
    132 N12         5.2390   -4.5870   -1.1420 n         1 MOL     -0.494740
    133 C43         6.6480   -4.6250   -0.8750 c3        1 MOL      0.193572
    134 C44         7.3580   -3.2830   -1.1110 c         1 MOL      0.486030
    135 O18         8.0350   -2.8570   -0.1980 o         1 MOL     -0.518200
    136 C45         7.3520   -5.6800   -1.7680 c3        1 MOL     -0.208399
    137 H62         4.9220   -5.3240   -1.7520 hn        1 MOL      0.296151
    138 H63         6.8700   -4.9620    0.1270 h1        1 MOL      0.058006
    139 H64         6.6710   -6.5180   -1.9570 hc        1 MOL      0.058784
    140 H65         7.6830   -5.2050   -2.6850 hc        1 MOL      0.058784
    141 H66         8.1960   -6.0830   -1.2020 hc        1 MOL      0.058784
    142 N13         7.1640   -2.5990   -2.2940 n         1 MOL     -0.379818
    143 C46         7.8770   -1.3050   -2.5410 c3        1 MOL      0.013924
    144 C47         7.3240   -0.1640   -1.6130 c         1 MOL      0.342492
    145 O19         8.0390    0.8640   -1.4290 o         1 MOL     -0.526421
    146 C48         7.7420   -0.9220   -3.9710 c3        1 MOL     -0.291204
    147 H67         6.5720   -2.9670   -3.0180 hn        1 MOL      0.290015
    148 H68         8.8890   -1.4780   -2.1770 h1        1 MOL      0.134843
    149 H69         8.2060   -1.7090   -4.5690 hc        1 MOL      0.093189
    150 H70         6.7270   -0.8990   -4.3470 hc        1 MOL      0.093189
    151 H71         8.2890   -0.0070   -4.2120 hc        1 MOL      0.093189
    152 N14         6.1730   -0.3160   -0.9540 n         1 MOL      0.020006
    153 C49         5.6220    0.6230    0.0110 c3        1 MOL     -0.335377
    154 C50         6.3460    0.3650    1.3890 c         1 MOL      0.410898
    155 O20         6.6800    1.3380    2.1080 o         1 MOL     -0.525664
    156 C51         4.0730    0.5160    0.2490 c3        1 MOL      0.291098
    157 C52         3.2390    0.9640   -1.0030 c3        1 MOL     -0.168398
    158 C53         1.7330    0.6010   -0.8970 c         1 MOL      0.602882
    159 O21         1.3110   -0.5430   -1.1540 o         1 MOL     -0.734912
    160 O22         0.8610    1.4040   -0.4800 o         1 MOL     -0.734912
    161 H72         5.6580   -1.1610   -1.1640 hn        1 MOL      0.082449
    162 H73         5.8690    1.6360   -0.2920 h1        1 MOL      0.146884
    163 H74         3.7720    1.1900    1.0540 hc        1 MOL     -0.013999
    164 H75         3.8000   -0.5250    0.4170 hc        1 MOL     -0.013999
    165 H76         3.6780    0.5430   -1.9130 hc        1 MOL      0.021527
    166 H77         3.3570    2.0400   -0.8880 hc        1 MOL      0.021527
    167 N15         6.6420   -0.9080    1.7350 n         1 MOL     -0.015153
    168 C54         7.3920   -1.3250    2.9230 c3        1 MOL     -0.341625
    169 H78         6.9870   -0.8240    3.8020 h1        1 MOL      0.131296
    170 H79         7.3050   -2.4040    3.0480 h1        1 MOL      0.131296
    171 H80         8.4420   -1.0560    2.8030 h1        1 MOL      0.131296
    172 H81         6.2740   -1.6540    1.1600 hn        1 MOL      0.074855
    173 Ca1        -1.2040    0.3100   -1.5570 Ca        1 MOL      1.823162
    174 O23        -0.4750    0.7730   -4.0530 oh        1 MOL     -0.877541
    175 H82        -0.6190    1.5380   -4.5990 ho        1 MOL      0.428334
    176 H83        -0.0860    0.1340   -4.6470 ho        1 MOL      0.428334
    177 O24        -1.1250   -1.9180   -2.8260 oh        1 MOL     -0.877541
    178 H84        -0.6970   -2.6970   -2.4750 ho        1 MOL      0.428334
    179 H85        -1.6360   -2.2380   -3.5730 ho        1 MOL      0.428334
@<TRIPOS>BOND
     1    1    2 1   
     2    1    4 1   
     3    1    5 1   
     4    1    6 1   
     5    2    3 2   
     6    2    7 1   
     7    7    8 1   
     8    7   15 1   
     9    8    9 1   
    10    8   11 1   
    11    8   16 1   
    12    9   10 2   
    13    9   19 1   
    14   11   12 1   
    15   11   17 1   
    16   11   18 1   
    17   12   13 1   
    18   12   14 1   
    19   19   20 1   
    20   19   28 1   
    21   20   21 1   
    22   20   23 1   
    23   20   29 1   
    24   21   22 2   
    25   21   41 1   
    26   23   24 1   
    27   23   30 1   
    28   23   31 1   
    29   24   25 1   
    30   24   32 1   
    31   24   33 1   
    32   25   26 1   
    33   25   34 1   
    34   25   35 1   
    35   26   27 1   
    36   26   36 1   
    37   26   37 1   
    38   27   38 1   
    39   27   39 1   
    40   27   40 1   
    41   41   42 1   
    42   41   49 1   
    43   42   43 1   
    44   42   45 1   
    45   42   50 1   
    46   43   44 2   
    47   43   53 1   
    48   45   46 1   
    49   45   51 1   
    50   45   52 1   
    51   46   47 1   
    52   46   48 1   
    53   53   54 1   
    54   53   57 1   
    55   54   55 1   
    56   54   58 1   
    57   54   59 1   
    58   55   56 2   
    59   55   60 1   
    60   60   61 1   
    61   60   68 1   
    62   61   62 1   
    63   61   64 1   
    64   61   69 1   
    65   62   63 2   
    66   62   74 1   
    67   64   65 1   
    68   64   70 1   
    69   64   71 1   
    70   65   66 1   
    71   65   67 2   
    72   66   72 1   
    73   66   73 1   
    74   74   75 1   
    75   74   78 1   
    76   75   76 1   
    77   75   79 1   
    78   75   80 1   
    79   76   77 2   
    80   76   81 1   
    81   81   82 1   
    82   81   93 1   
    83   82   83 1   
    84   82   85 1   
    85   82   94 1   
    86   83   84 2   
    87   83  102 1   
    88   85   86 1   
    89   85   95 1   
    90   85   96 1   
    91   86   87 ar  
    92   86   88 ar  
    93   87   89 ar  
    94   87   97 1   
    95   88   90 ar  
    96   88   98 1   
    97   89   91 ar  
    98   89   99 1   
    99   90   91 ar  
   100   90  100 1   
   101   91   92 1   
   102   92  101 1   
   103  102  103 1   
   104  102  110 1   
   105  103  104 1   
   106  103  106 1   
   107  103  111 1   
   108  104  105 2   
   109  104  121 1   
   110  106  107 1   
   111  106  108 1   
   112  106  112 1   
   113  107  109 1   
   114  107  113 1   
   115  107  114 1   
   116  108  115 1   
   117  108  116 1   
   118  108  117 1   
   119  109  118 1   
   120  109  119 1   
   121  109  120 1   
   122  121  122 1   
   123  121  127 1   
   124  122  123 1   
   125  122  125 1   
   126  122  128 1   
   127  123  124 2   
   128  123  132 1   
   129  125  126 1   
   130  125  129 1   
   131  125  130 1   
   132  126  131 1   
   133  132  133 1   
   134  132  137 1   
   135  133  134 1   
   136  133  136 1   
   137  133  138 1   
   138  134  135 2   
   139  134  142 1   
   140  136  139 1   
   141  136  140 1   
   142  136  141 1   
   143  142  143 1   
   144  142  147 1   
   145  143  144 1   
   146  143  146 1   
   147  143  148 1   
   148  144  145 2   
   149  144  152 1   
   150  146  149 1   
   151  146  150 1   
   152  146  151 1   
   153  152  153 1   
   154  152  161 1   
   155  153  154 1   
   156  153  156 1   
   157  153  162 1   
   158  154  155 2   
   159  154  167 1   
   160  156  157 1   
   161  156  163 1   
   162  156  164 1   
   163  157  158 1   
   164  157  165 1   
   165  157  166 1   
   166  158  159 1   
   167  158  160 1   
   168  167  168 1   
   169  167  172 1   
   170  168  169 1   
   171  168  170 1   
   172  168  171 1   
   173  174  175 1   
   174  174  176 1   
   175  177  178 1   
   176  177  179 1   
@<TRIPOS>SUBSTRUCTURE
     1 MOL         1 TEMP              0 ****  ****    0 ROOT
