@<TRIPOS>MOLECULE
MOL
  189   185     1     0     0
SMALL
resp


@<TRIPOS>ATOM
      1 C1         -0.0390    2.8830   -4.8580 c3        1 MOL     -0.407913
      2 C2          0.4470    2.4260   -3.4980 c         1 MOL      0.753573
      3 O1         -0.1690    2.8150   -2.4820 o         1 MOL     -0.700415
      4 H1          0.5340    3.7560   -5.1740 hc        1 MOL      0.104267
      5 H2          0.0960    2.0790   -5.5820 hc        1 MOL      0.104267
      6 H3         -1.0950    3.1460   -4.7980 hc        1 MOL      0.104267
      7 N1          1.5090    1.6380   -3.4810 n         1 MOL     -0.501534
      8 C3          2.2380    1.2080   -2.2920 c3        1 MOL      0.219463
      9 C4          3.1030    2.4400   -1.6950 c         1 MOL      0.280216
     10 O2          4.3190    2.4490   -1.8790 o         1 MOL     -0.419429
     11 C5          3.1010   -0.0910   -2.5270 c3        1 MOL     -0.414265
     12 C6          3.8850   -0.4000   -1.2930 c         1 MOL      0.733685
     13 O3          5.0730   -0.7310   -1.4710 o         1 MOL     -0.653824
     14 O4          3.3990   -0.2520   -0.1220 o         1 MOL     -0.653824
     15 H4          1.9420    1.4320   -4.3600 hn        1 MOL      0.280516
     16 H5          1.4320    0.9970   -1.5940 h1        1 MOL      0.005002
     17 H6          3.7560    0.1840   -3.3470 hc        1 MOL      0.114357
     18 H7          2.4740   -0.9560   -2.7200 hc        1 MOL      0.114357
     19 N2          2.4690    3.4090   -0.9940 n         1 MOL     -0.224561
     20 C7          3.1180    4.7040   -0.6520 c3        1 MOL      0.041628
     21 C8          4.0820    4.6530    0.6200 c         1 MOL      0.460342
     22 O5          5.0460    5.4050    0.6900 o         1 MOL     -0.546808
     23 C9          2.0990    5.8490   -0.3770 c3        1 MOL     -0.148366
     24 C10         1.3610    6.1970   -1.6600 c3        1 MOL      0.425602
     25 C11         1.8620    7.4880   -2.3410 c3        1 MOL     -0.290414
     26 C12         3.1160    7.2620   -3.0600 c3        1 MOL      0.153669
     27 N3          3.6490    8.5140   -3.4740 n4        1 MOL     -0.417061
     28 H8          1.4890    3.3470   -0.7560 hn        1 MOL      0.329943
     29 H9          3.7470    5.0340   -1.4770 h1        1 MOL     -0.019074
     30 H10         2.5800    6.7060    0.0850 hc        1 MOL      0.037122
     31 H11         1.3690    5.4440    0.3240 hc        1 MOL      0.037122
     32 H12         0.3610    6.5030   -1.3690 hc        1 MOL     -0.065183
     33 H13         1.3340    5.4190   -2.4230 hc        1 MOL     -0.065183
     34 H14         2.1460    8.2260   -1.5980 hc        1 MOL      0.061517
     35 H15         1.1260    7.7960   -3.0820 hc        1 MOL      0.061517
     36 H16         2.8430    6.5110   -3.8040 hx        1 MOL      0.071348
     37 H17         3.8790    6.8490   -2.4020 hx        1 MOL      0.071348
     38 H18         4.3900    8.4960   -4.1630 hn        1 MOL      0.339072
     39 H19         2.9330    9.0080   -3.9750 hn        1 MOL      0.339072
     40 H20         3.9150    9.0770   -2.6860 hn        1 MOL      0.339072
     41 N4          3.7910    3.7450    1.5590 n         1 MOL     -0.295230
     42 C13         4.6780    3.3610    2.6550 c3        1 MOL      0.064074
     43 C14         5.8630    2.4270    2.2380 c         1 MOL      0.345743
     44 O6          6.9350    2.4040    2.9510 o         1 MOL     -0.532234
     45 C15         3.8770    2.9760    3.9120 c3        1 MOL     -0.373602
     46 C16         2.6350    2.1350    3.7520 c         1 MOL      0.804032
     47 O7          1.7200    2.1980    4.6540 o         1 MOL     -0.725099
     48 O8          2.5670    1.2200    2.8400 o         1 MOL     -0.725099
     49 H21         3.0330    3.1170    1.3610 hn        1 MOL      0.187374
     50 H22         5.1140    4.3360    2.8980 h1        1 MOL      0.102129
     51 H23         3.5170    3.9100    4.3500 hc        1 MOL      0.111658
     52 H24         4.4760    2.3940    4.6150 hc        1 MOL      0.111658
     53 N5          5.7620    1.7400    1.0680 n         1 MOL      0.057538
     54 C17         6.9380    1.1280    0.4650 c3        1 MOL     -0.216410
     55 C18         7.2590   -0.3050    1.0020 c         1 MOL      0.526429
     56 O9          8.4110   -0.6980    0.8680 o         1 MOL     -0.572380
     57 H25         4.9440    1.7110    0.4800 hn        1 MOL     -0.006569
     58 H26         7.8050    1.7580    0.6430 h1        1 MOL      0.115693
     59 H27         6.9370    1.1420   -0.6280 h1        1 MOL      0.115693
     60 N6          6.2780   -1.0540    1.5730 n         1 MOL     -0.235338
     61 C19         6.4480   -2.3600    2.2350 c3        1 MOL     -0.043660
     62 C20         6.5360   -3.4660    1.2020 c         1 MOL      0.419816
     63 O10         7.0420   -4.5560    1.5070 o         1 MOL     -0.559338
     64 C21         5.3740   -2.5330    3.2610 c3        1 MOL     -0.116307
     65 C22         3.9730   -2.2090    2.7520 c         1 MOL      0.778459
     66 O11         3.1560   -1.5430    3.3950 o         1 MOL     -0.738143
     67 O12         3.6260   -2.5840    1.6290 o         1 MOL     -0.738143
     68 H28         5.3470   -0.6670    1.4820 hn        1 MOL      0.127461
     69 H29         7.3730   -2.2940    2.8050 h1        1 MOL      0.120698
     70 H30         5.5350   -1.9850    4.1980 hc        1 MOL      0.040156
     71 H31         5.3590   -3.5870    3.5650 hc        1 MOL      0.040156
     72 N7          6.2180   -3.2020   -0.0450 n         1 MOL     -0.158650
     73 C23         6.1380   -4.1680   -1.1670 c3        1 MOL     -0.138665
     74 C24         4.7720   -4.6940   -1.5200 c         1 MOL      0.517500
     75 O13         4.6730   -5.5690   -2.3430 o         1 MOL     -0.579058
     76 H32         5.9430   -2.2510   -0.2550 hn        1 MOL      0.231327
     77 H33         6.8710   -4.9710   -1.1080 h1        1 MOL      0.087714
     78 H34         6.3900   -3.5070   -2.0040 h1        1 MOL      0.087714
     79 N8          3.7280   -4.1990   -0.8390 n         1 MOL     -0.085054
     80 C25         2.3350   -4.6290   -1.0780 c3        1 MOL     -0.140246
     81 C26         1.3360   -3.4670   -1.1900 c         1 MOL      0.522078
     82 O14         1.4660   -2.4210   -0.4830 o         1 MOL     -0.665803
     83 C27         1.8700   -5.5140    0.0720 c3        1 MOL      0.451996
     84 C28         2.6460   -6.7870    0.0990 c3        1 MOL     -0.474253
     85 O15         2.1260   -4.8270    1.3580 oh        1 MOL     -0.664044
     86 H35         3.9960   -3.4960   -0.1670 hn        1 MOL      0.098462
     87 H36         2.3180   -5.1680   -2.0160 h1        1 MOL      0.074354
     88 H37         0.8090   -5.7100   -0.1040 h1        1 MOL     -0.020528
     89 H38         2.6740   -4.0440    1.2760 ho        1 MOL      0.424425
     90 H39         2.2050   -7.4830    0.8050 hc        1 MOL      0.124883
     91 H40         2.5780   -7.1930   -0.9190 hc        1 MOL      0.124883
     92 H41         3.6650   -6.5750    0.4380 hc        1 MOL      0.124883
     93 N9          0.3280   -3.6280   -2.0170 n         1 MOL     -0.415154
     94 C29        -0.7470   -2.6420   -2.2680 c3        1 MOL     -0.052006
     95 C30        -2.0580   -3.1340   -1.6260 c         1 MOL      0.474506
     96 O16        -2.3870   -4.3020   -1.7100 o         1 MOL     -0.573009
     97 C31        -0.9310   -2.3880   -3.7920 c3        1 MOL      0.132204
     98 C32         0.3820   -1.8410   -4.4090 c3        1 MOL      0.286696
     99 C33        -2.1440   -1.4570   -4.0280 c3        1 MOL     -0.371584
    100 C34         0.4280   -1.7920   -5.9370 c3        1 MOL     -0.191673
    101 H42         0.3100   -4.4320   -2.6360 hn        1 MOL      0.286504
    102 H43        -0.5290   -1.6890   -1.7950 h1        1 MOL      0.215422
    103 H44        -1.0250   -3.3640   -4.2700 hc        1 MOL     -0.005044
    104 H45         1.1940   -2.4990   -4.0940 hc        1 MOL     -0.070880
    105 H46         0.5300   -0.8400   -3.9940 hc        1 MOL     -0.070880
    106 H47        -2.1510   -1.1090   -5.0580 hc        1 MOL      0.060659
    107 H48        -3.0890   -1.9500   -3.8050 hc        1 MOL      0.060659
    108 H49        -2.1990   -0.5950   -3.3570 hc        1 MOL      0.060659
    109 H50         1.3130   -1.2510   -6.2580 hc        1 MOL      0.033773
    110 H51         0.5500   -2.7990   -6.3520 hc        1 MOL      0.033773
    111 H52        -0.3980   -1.2050   -6.3230 hc        1 MOL      0.033773
    112 N10        -2.7120   -2.3530   -0.7350 n         1 MOL     -0.037084
    113 C35        -3.8770   -2.7880    0.1560 c3        1 MOL     -0.202838
    114 C36        -5.1540   -2.3100   -0.5100 c         1 MOL      0.469812
    115 O17        -5.1630   -1.3780   -1.3630 o         1 MOL     -0.406926
    116 C37        -3.7310   -2.2410    1.5800 c3        1 MOL      0.244047
    117 C38        -2.6570   -2.9150    2.4100 c3        1 MOL     -0.446231
    118 O18        -3.4960   -0.8250    1.5290 oh        1 MOL     -0.508770
    119 H53        -2.4750   -1.3690   -0.6140 hn        1 MOL      0.173638
    120 H54        -3.8210   -3.8690    0.2920 h1        1 MOL      0.134077
    121 H55        -4.6700   -2.3500    2.1130 h1        1 MOL      0.036693
    122 H56        -2.5760   -0.6560    1.2850 ho        1 MOL      0.345609
    123 H57        -2.8480   -3.9930    2.4730 hc        1 MOL      0.128832
    124 H58        -1.6900   -2.9500    1.9040 hc        1 MOL      0.128832
    125 H59        -2.5070   -2.4700    3.3920 hc        1 MOL      0.128832
    126 N11        -6.2740   -2.9250   -0.0410 n         1 MOL     -0.414111
    127 C39        -7.5960   -2.3850   -0.4700 c3        1 MOL     -0.208427
    128 C40        -7.8420   -0.8990   -0.1680 c         1 MOL      0.274731
    129 O19        -8.4850   -0.1790   -0.9230 o         1 MOL     -0.460895
    130 C41        -8.8630   -3.0810    0.0890 c3        1 MOL      0.333657
    131 C42        -8.9490   -4.3280   -0.8130 c3        1 MOL     -0.309647
    132 O20        -8.5260   -3.2850    1.4230 oh        1 MOL     -0.579225
    133 H60        -6.3360   -3.5680    0.7370 hn        1 MOL      0.324243
    134 H61        -7.5480   -2.4660   -1.5580 h1        1 MOL      0.160024
    135 H62        -9.7290   -2.4400   -0.0820 h1        1 MOL      0.050530
    136 H63        -9.0930   -2.7240    1.9640 ho        1 MOL      0.377795
    137 H64        -9.9310   -4.7890   -0.6830 hc        1 MOL      0.091619
    138 H65        -8.9330   -4.2240   -1.8980 hc        1 MOL      0.091619
    139 H66        -8.2280   -5.0860   -0.5160 hc        1 MOL      0.091619
    140 N12        -7.1490   -0.4040    0.8820 n         1 MOL     -0.001956
    141 C43        -7.2220    1.0150    1.2720 c3        1 MOL     -0.317489
    142 C44        -6.3760    1.8690    0.3360 c         1 MOL      0.402147
    143 O21        -6.8600    2.8990   -0.1340 o         1 MOL     -0.508846
    144 C45        -6.8050    1.0570    2.7310 c3        1 MOL     -0.226249
    145 C46        -6.8960    2.4870    3.2870 c3        1 MOL      0.181773
    146 C47        -6.6520    2.5550    4.8450 c3        1 MOL     -0.008967
    147 C48        -7.0500    3.9230    5.3640 c3        1 MOL     -0.088757
    148 N13        -8.5310    4.0200    5.6690 n4        1 MOL     -0.338441
    149 H67        -6.6770   -1.0090    1.5320 hn        1 MOL      0.171242
    150 H68        -8.2890    1.2550    1.2960 h1        1 MOL      0.175020
    151 H69        -5.7640    0.7320    2.8200 hc        1 MOL      0.070606
    152 H70        -7.4690    0.4240    3.3120 hc        1 MOL      0.070606
    153 H71        -7.9240    2.8090    3.1290 hc        1 MOL     -0.006191
    154 H72        -6.1810    3.0950    2.7360 hc        1 MOL     -0.006191
    155 H73        -5.5950    2.4310    5.0460 hc        1 MOL      0.050089
    156 H74        -7.2790    1.8550    5.3920 hc        1 MOL      0.050089
    157 H75        -6.7720    4.6500    4.6040 hx        1 MOL      0.123430
    158 H76        -6.5550    4.0650    6.3250 hx        1 MOL      0.123430
    159 H77        -8.6740    4.8230    6.2630 hn        1 MOL      0.321388
    160 H78        -9.0920    4.2650    4.8660 hn        1 MOL      0.321388
    161 H79        -8.8830    3.1920    6.1260 hn        1 MOL      0.321388
    162 N14        -5.1380    1.4430   -0.1030 n         1 MOL      0.107470
    163 C49        -4.2170    2.0960   -1.0790 c3        1 MOL     -0.340622
    164 C50        -4.9120    2.1900   -2.4950 c         1 MOL      0.532600
    165 O22        -4.9400    3.2890   -3.1080 o         1 MOL     -0.547530
    166 C51        -2.8690    1.3790   -1.2160 c3        1 MOL      0.242699
    167 C52        -2.1200    1.6890    0.0780 c3        1 MOL     -0.129256
    168 C53        -0.8570    0.8250    0.2440 c         1 MOL      0.945152
    169 O23        -0.9660   -0.3860    0.2750 o         1 MOL     -0.899675
    170 O24         0.2310    1.3660    0.5690 o         1 MOL     -0.899675
    171 H80        -4.9090    0.5470    0.3010 hn        1 MOL      0.014415
    172 H81        -4.0450    3.1110   -0.7250 h1        1 MOL      0.114943
    173 H82        -2.3620    1.7720   -2.0960 hc        1 MOL     -0.016221
    174 H83        -3.0430    0.3050   -1.3580 hc        1 MOL     -0.016221
    175 H84        -2.6310    1.6690    1.0350 hc        1 MOL      0.030063
    176 H85        -1.7440    2.7080    0.1050 hc        1 MOL      0.030063
    177 N15        -5.5530    1.0840   -2.9570 n         1 MOL     -0.202788
    178 C54        -6.4720    1.0650   -4.1160 c3        1 MOL     -0.374183
    179 H86        -5.9960    1.5570   -4.9640 h1        1 MOL      0.137956
    180 H87        -6.7050    0.0340   -4.3790 h1        1 MOL      0.137956
    181 H88        -7.3910    1.5920   -3.8600 h1        1 MOL      0.137956
    182 H89        -5.5840    0.2600   -2.3820 hn        1 MOL      0.254222
    183 Ca1         1.5710   -0.7190    1.5000 Ca        1 MOL      1.824320
    184 O25         0.6470   -3.1860    2.7150 oh        1 MOL     -0.848727
    185 H90         0.6100   -3.7550    3.4880 ho        1 MOL      0.401057
    186 H91         0.9520   -3.7600    2.0070 ho        1 MOL      0.401057
    187 O26         0.0740    0.0930    3.8300 oh        1 MOL     -0.848727
    188 H92        -0.4620    0.3660    4.5740 ho        1 MOL      0.401057
    189 H93         0.8230    0.6870    3.8300 ho        1 MOL      0.401057
@<TRIPOS>BOND
     1    1    2 1   
     2    1    4 1   
     3    1    5 1   
     4    1    6 1   
     5    2    3 2   
     6    2    7 1   
     7    7    8 1   
     8    7   15 1   
     9    8    9 1   
    10    8   11 1   
    11    8   16 1   
    12    9   10 2   
    13    9   19 1   
    14   11   12 1   
    15   11   17 1   
    16   11   18 1   
    17   12   13 1   
    18   12   14 1   
    19   19   20 1   
    20   19   28 1   
    21   20   21 1   
    22   20   23 1   
    23   20   29 1   
    24   21   22 2   
    25   21   41 1   
    26   23   24 1   
    27   23   30 1   
    28   23   31 1   
    29   24   25 1   
    30   24   32 1   
    31   24   33 1   
    32   25   26 1   
    33   25   34 1   
    34   25   35 1   
    35   26   27 1   
    36   26   36 1   
    37   26   37 1   
    38   27   38 1   
    39   27   39 1   
    40   27   40 1   
    41   41   42 1   
    42   41   49 1   
    43   42   43 1   
    44   42   45 1   
    45   42   50 1   
    46   43   44 2   
    47   43   53 1   
    48   45   46 1   
    49   45   51 1   
    50   45   52 1   
    51   46   47 1   
    52   46   48 1   
    53   53   54 1   
    54   53   57 1   
    55   54   55 1   
    56   54   58 1   
    57   54   59 1   
    58   55   56 2   
    59   55   60 1   
    60   60   61 1   
    61   60   68 1   
    62   61   62 1   
    63   61   64 1   
    64   61   69 1   
    65   62   63 2   
    66   62   72 1   
    67   64   65 1   
    68   64   70 1   
    69   64   71 1   
    70   65   66 1   
    71   65   67 1   
    72   72   73 1   
    73   72   76 1   
    74   73   74 1   
    75   73   77 1   
    76   73   78 1   
    77   74   75 2   
    78   74   79 1   
    79   79   80 1   
    80   79   86 1   
    81   80   81 1   
    82   80   83 1   
    83   80   87 1   
    84   81   82 2   
    85   81   93 1   
    86   83   84 1   
    87   83   85 1   
    88   83   88 1   
    89   84   90 1   
    90   84   91 1   
    91   84   92 1   
    92   85   89 1   
    93   93   94 1   
    94   93  101 1   
    95   94   95 1   
    96   94   97 1   
    97   94  102 1   
    98   95   96 2   
    99   95  112 1   
   100   97   98 1   
   101   97   99 1   
   102   97  103 1   
   103   98  100 1   
   104   98  104 1   
   105   98  105 1   
   106   99  106 1   
   107   99  107 1   
   108   99  108 1   
   109  100  109 1   
   110  100  110 1   
   111  100  111 1   
   112  112  113 1   
   113  112  119 1   
   114  113  114 1   
   115  113  116 1   
   116  113  120 1   
   117  114  115 2   
   118  114  126 1   
   119  116  117 1   
   120  116  118 1   
   121  116  121 1   
   122  117  123 1   
   123  117  124 1   
   124  117  125 1   
   125  118  122 1   
   126  126  127 1   
   127  126  133 1   
   128  127  128 1   
   129  127  130 1   
   130  127  134 1   
   131  128  129 2   
   132  128  140 1   
   133  130  131 1   
   134  130  132 1   
   135  130  135 1   
   136  131  137 1   
   137  131  138 1   
   138  131  139 1   
   139  132  136 1   
   140  140  141 1   
   141  140  149 1   
   142  141  142 1   
   143  141  144 1   
   144  141  150 1   
   145  142  143 2   
   146  142  162 1   
   147  144  145 1   
   148  144  151 1   
   149  144  152 1   
   150  145  146 1   
   151  145  153 1   
   152  145  154 1   
   153  146  147 1   
   154  146  155 1   
   155  146  156 1   
   156  147  148 1   
   157  147  157 1   
   158  147  158 1   
   159  148  159 1   
   160  148  160 1   
   161  148  161 1   
   162  162  163 1   
   163  162  171 1   
   164  163  164 1   
   165  163  166 1   
   166  163  172 1   
   167  164  165 2   
   168  164  177 1   
   169  166  167 1   
   170  166  173 1   
   171  166  174 1   
   172  167  168 1   
   173  167  175 1   
   174  167  176 1   
   175  168  169 1   
   176  168  170 1   
   177  177  178 1   
   178  177  182 1   
   179  178  179 1   
   180  178  180 1   
   181  178  181 1   
   182  184  185 1   
   183  184  186 1   
   184  187  188 1   
   185  187  189 1   
@<TRIPOS>SUBSTRUCTURE
     1 MOL         1 TEMP              0 ****  ****    0 ROOT
