@<TRIPOS>MOLECULE
MOL
  189   185     1     0     0
SMALL
resp


@<TRIPOS>ATOM
      1 C1         -0.0750   -4.3620    5.8210 c3        1 MOL     -0.416141
      2 C2          0.5040   -3.7960    4.5030 c         1 MOL      0.766349
      3 O1          0.8860   -2.5940    4.4060 o         1 MOL     -0.630192
      4 H1         -0.7540   -3.6320    6.2620 hc        1 MOL      0.109468
      5 H2         -0.6180   -5.2840    5.6140 hc        1 MOL      0.109468
      6 H3          0.7380   -4.5680    6.5170 hc        1 MOL      0.109468
      7 N1          0.7300   -4.6130    3.4860 n         1 MOL     -0.643600
      8 C3          1.4400   -4.2570    2.2370 c3        1 MOL      0.235747
      9 C4          1.2300   -5.2700    1.1030 c         1 MOL      0.498925
     10 O2          1.1780   -6.5180    1.3400 o         1 MOL     -0.576207
     11 C5          2.9530   -4.1230    2.4750 c3        1 MOL     -0.143841
     12 C6          3.8000   -3.6420    1.3380 c         1 MOL      0.649394
     13 O3          4.9300   -4.0430    1.1680 o         1 MOL     -0.643216
     14 O4          3.3000   -2.7790    0.5770 o         1 MOL     -0.643216
     15 H4          0.6140   -5.6010    3.6520 hn        1 MOL      0.310481
     16 H5          1.0700   -3.2680    1.9680 h1        1 MOL      0.068137
     17 H6          3.3580   -5.1030    2.7380 hc        1 MOL      0.020283
     18 H7          3.1370   -3.4670    3.3260 hc        1 MOL      0.020283
     19 N2          1.0370   -4.7410   -0.1410 n         1 MOL     -0.326759
     20 C7          0.8610   -5.4450   -1.3930 c3        1 MOL      0.041426
     21 C8          2.1050   -5.3800   -2.2940 c         1 MOL      0.512949
     22 O5          2.2270   -6.1530   -3.2010 o         1 MOL     -0.563075
     23 C9         -0.4860   -5.0840   -2.0850 c3        1 MOL      0.278295
     24 C10        -1.6550   -5.3720   -1.1590 c3        1 MOL     -0.002694
     25 C11        -0.6330   -5.7280   -3.5270 c3        1 MOL     -0.351350
     26 C12        -2.9710   -4.9290   -1.6580 c3        1 MOL     -0.139918
     27 H8          0.9640   -3.7350   -0.2300 hn        1 MOL      0.093520
     28 H9          0.7450   -6.4960   -1.1400 h1        1 MOL      0.024786
     29 H10        -0.4100   -4.0040   -2.2180 hc        1 MOL     -0.019501
     30 H11        -1.5530   -4.8200   -0.2300 hc        1 MOL     -0.006768
     31 H12        -1.6320   -6.4410   -0.9300 hc        1 MOL     -0.006768
     32 H13        -0.2790   -6.7600   -3.4630 hc        1 MOL      0.071238
     33 H14        -1.6470   -5.6080   -3.9070 hc        1 MOL      0.071238
     34 H15         0.0990   -5.2200   -4.1420 hc        1 MOL      0.071238
     35 H16        -2.8980   -3.8430   -1.7610 hc        1 MOL      0.035660
     36 H17        -3.2210   -5.3980   -2.6140 hc        1 MOL      0.035660
     37 H18        -3.7490   -5.2230   -0.9600 hc        1 MOL      0.035660
     38 N3          2.9320   -4.3400   -2.1820 n         1 MOL     -0.459226
     39 C13         3.8230   -3.8370   -3.2680 c3        1 MOL      0.083412
     40 C14         5.1480   -3.2240   -2.7450 c         1 MOL      0.337381
     41 O6          5.9290   -2.9630   -3.6280 o         1 MOL     -0.545373
     42 C15         3.1190   -2.7370   -4.1260 c3        1 MOL     -0.148012
     43 C16         2.4990   -1.5820   -3.2340 c         1 MOL      0.684196
     44 O7          2.9950   -1.2250   -2.1440 o         1 MOL     -0.692082
     45 O8          1.4960   -0.9590   -3.7780 o         1 MOL     -0.692082
     46 H19         2.7780   -3.7510   -1.3720 hn        1 MOL      0.365238
     47 H20         4.0110   -4.6920   -3.9090 h1        1 MOL      0.088264
     48 H21         2.2510   -3.2470   -4.5390 hc        1 MOL      0.050100
     49 H22         3.7610   -2.4260   -4.9410 hc        1 MOL      0.050100
     50 N4          5.4730   -3.0690   -1.4460 n         1 MOL     -0.031983
     51 C17         6.7730   -2.6490   -0.9040 c3        1 MOL     -0.240324
     52 C18         7.2460   -1.2000   -1.2500 c         1 MOL      0.469602
     53 O9          8.4240   -0.9030   -1.2480 o         1 MOL     -0.601691
     54 H23         4.7250   -3.2530   -0.7850 hn        1 MOL      0.015234
     55 H24         7.5290   -3.2270   -1.4400 h1        1 MOL      0.116426
     56 H25         6.9380   -2.8150    0.1620 h1        1 MOL      0.116426
     57 N5          6.3410   -0.2650   -1.5930 n         1 MOL     -0.068765
     58 C19         6.6680    1.0150   -2.0920 c3        1 MOL     -0.095165
     59 C20         7.1270    2.1110   -1.0630 c         1 MOL      0.500991
     60 O10         7.4120    3.2290   -1.4730 o         1 MOL     -0.540056
     61 C21         5.4480    1.5970   -2.9130 c3        1 MOL     -0.179462
     62 C22         4.1990    1.8760   -2.0630 c         1 MOL      0.806113
     63 O11         4.1690    1.5050   -0.8540 o         1 MOL     -0.720615
     64 O12         3.2170    2.4140   -2.6270 o         1 MOL     -0.720615
     65 H26         5.3840   -0.5790   -1.7000 hn        1 MOL      0.164305
     66 H27         7.5230    1.0470   -2.7790 h1        1 MOL      0.084871
     67 H28         5.2470    0.8460   -3.6790 hc        1 MOL      0.051316
     68 H29         5.7480    2.5070   -3.4310 hc        1 MOL      0.051316
     69 N6          7.0580    1.8000    0.2520 n         1 MOL     -0.354340
     70 C23         7.2240    2.7910    1.3940 c3        1 MOL     -0.149195
     71 C24         6.1090    3.6610    1.8160 c         1 MOL      0.529695
     72 O13         6.2830    4.5880    2.5650 o         1 MOL     -0.606852
     73 H30         6.7920    0.8730    0.5510 hn        1 MOL      0.247609
     74 H31         8.0250    3.4730    1.1070 h1        1 MOL      0.086733
     75 H32         7.5610    2.2430    2.2750 h1        1 MOL      0.086733
     76 N7          4.9340    3.4230    1.2710 n         1 MOL     -0.183757
     77 C25         3.6570    4.1800    1.6070 c3        1 MOL     -0.069267
     78 C26         2.5000    3.1930    1.7880 c         1 MOL      0.255910
     79 O14         2.4970    2.0700    1.2530 o         1 MOL     -0.452663
     80 C27         3.4100    5.1740    0.4790 c3        1 MOL      0.085037
     81 C28         4.3700    6.3570    0.4920 c3        1 MOL     -0.450064
     82 C29         3.8050    7.4470   -0.4430 c         1 MOL      0.690853
     83 N8          4.4240    7.6240   -1.5820 n         1 MOL     -0.794007
     84 O15         2.7850    8.0700   -0.2010 o         1 MOL     -0.580483
     85 H33         4.8900    2.6580    0.6140 hn        1 MOL      0.151465
     86 H34         3.7590    4.7010    2.5510 h1        1 MOL      0.076803
     87 H35         2.3840    5.5090    0.6570 hc        1 MOL      0.062103
     88 H36         3.4000    4.7220   -0.5060 hc        1 MOL      0.062103
     89 H37         5.3460    6.0190    0.1510 hc        1 MOL      0.141704
     90 H38         4.5150    6.7670    1.4970 hc        1 MOL      0.141704
     91 H39         5.2160    7.0520   -1.7970 hn        1 MOL      0.360218
     92 H40         4.0060    8.1720   -2.3240 hn        1 MOL      0.360218
     93 N9          1.5170    3.7140    2.4760 n         1 MOL     -0.195585
     94 C30         0.1880    2.9480    2.5980 c3        1 MOL     -0.022748
     95 C31        -0.9160    3.4270    1.5650 c         1 MOL      0.407788
     96 O16        -1.1640    4.6310    1.5190 o         1 MOL     -0.565400
     97 C32        -0.4010    3.0030    4.0130 c3        1 MOL      0.224902
     98 C33        -1.4530    1.9440    4.3720 c3        1 MOL     -0.203070
     99 C34         0.7170    2.8170    5.1030 c3        1 MOL     -0.203070
    100 H41         1.5770    4.6800    2.7640 hn        1 MOL      0.239969
    101 H42         0.4160    1.9580    2.2200 h1        1 MOL      0.074356
    102 H43        -0.8040    3.9830    4.2520 hc        1 MOL     -0.030573
    103 H44        -1.7200    2.1000    5.4130 hc        1 MOL      0.036237
    104 H45        -2.3990    2.0970    3.8400 hc        1 MOL      0.036237
    105 H46        -0.9540    0.9750    4.3110 hc        1 MOL      0.036237
    106 H47         1.4420    3.6300    5.1480 hc        1 MOL      0.036237
    107 H48         0.3240    2.7510    6.1150 hc        1 MOL      0.036237
    108 H49         1.2650    1.8870    4.9620 hc        1 MOL      0.036237
    109 N10        -1.4060    2.4610    0.7810 n         1 MOL     -0.090115
    110 C35        -2.5030    2.6590   -0.2130 c3        1 MOL      0.048852
    111 C36        -3.8720    2.5610    0.5140 c         1 MOL      0.210789
    112 O17        -4.0640    1.8450    1.5340 o         1 MOL     -0.392729
    113 C37        -2.2970    1.5870   -1.3070 c3        1 MOL     -0.537688
    114 C38        -3.4020    1.6690   -2.3600 c         1 MOL      0.838214
    115 N11        -3.5390    2.7220   -3.1170 n         1 MOL     -0.790252
    116 O18        -4.2320    0.7550   -2.4470 o         1 MOL     -0.639716
    117 H50        -0.9910    1.5380    0.7630 hn        1 MOL      0.166093
    118 H51        -2.4460    3.6470   -0.6640 h1        1 MOL      0.047876
    119 H52        -2.3210    0.6000   -0.8260 hc        1 MOL      0.186118
    120 H53        -1.3840    1.6640   -1.9060 hc        1 MOL      0.186118
    121 H54        -2.9820    3.5030   -2.8120 hn        1 MOL      0.351468
    122 H55        -4.3500    2.7920   -3.7180 hn        1 MOL      0.351468
    123 N12        -4.9180    3.1300   -0.0660 n         1 MOL     -0.076495
    124 C39        -6.2790    2.9280    0.3350 c3        1 MOL      0.069743
    125 C40        -6.7470    1.4870    0.5040 c         1 MOL      0.305094
    126 O19        -7.6940    1.2040    1.2650 o         1 MOL     -0.588777
    127 C41        -7.2110    3.7070   -0.6760 c3        1 MOL     -0.133904
    128 C42        -6.8650    3.4750   -2.1070 ca        1 MOL     -0.017222
    129 C43        -6.3630    4.5710   -2.8140 ca        1 MOL     -0.039539
    130 C44        -6.9720    2.2750   -2.7440 ca        1 MOL     -0.039539
    131 C45        -6.0120    4.5320   -4.1980 ca        1 MOL     -0.410212
    132 C46        -6.5410    2.1420   -4.1250 ca        1 MOL     -0.410212
    133 C47        -6.0570    3.2530   -4.8130 ca        1 MOL      0.492620
    134 O20        -5.6650    3.1400   -6.1210 oh        1 MOL     -0.608044
    135 H56        -4.7510    3.8210   -0.7770 hn        1 MOL      0.123008
    136 H57        -6.3920    3.4920    1.2580 h1        1 MOL      0.049570
    137 H58        -7.1860    4.7670   -0.4200 hc        1 MOL      0.062704
    138 H59        -8.2310    3.3900   -0.4400 hc        1 MOL      0.062704
    139 H60        -6.3810    5.5410   -2.3530 ha        1 MOL      0.092147
    140 H61        -7.5050    1.5580   -2.1390 ha        1 MOL      0.092147
    141 H62        -5.6810    5.3780   -4.7740 ha        1 MOL      0.182848
    142 H63        -6.6460    1.2130   -4.6670 ha        1 MOL      0.182848
    143 H64        -5.9480    2.3450   -6.5670 ho        1 MOL      0.425509
    144 N13        -6.2100    0.4980   -0.1320 n         1 MOL      0.183618
    145 C48        -6.5290   -0.9170   -0.0440 c3        1 MOL     -0.369997
    146 C49        -5.6690   -1.6200    1.0350 c         1 MOL      0.616943
    147 O21        -5.9510   -2.7860    1.3250 o         1 MOL     -0.489566
    148 C50        -6.3180   -1.6190   -1.3960 c3        1 MOL     -0.119999
    149 C51        -7.1610   -2.9590   -1.5290 c3        1 MOL     -0.179027
    150 C52        -8.6300   -2.7250   -1.1880 c         1 MOL      0.608329
    151 O22        -9.2170   -1.7280   -1.6970 o         1 MOL     -0.710107
    152 O23        -9.1880   -3.3800   -0.2640 o         1 MOL     -0.710107
    153 H65        -5.5910    0.7670   -0.8880 hn        1 MOL      0.273881
    154 H66        -7.5400   -0.9190    0.3690 h1        1 MOL      0.269639
    155 H67        -5.2940   -1.9930   -1.4650 hc        1 MOL      0.071729
    156 H68        -6.6310   -0.9230   -2.1750 hc        1 MOL      0.071729
    157 H69        -6.8120   -3.6840   -0.7870 hc        1 MOL      0.028183
    158 H70        -7.0920   -3.3950   -2.5200 hc        1 MOL      0.028183
    159 N14        -4.6730   -0.9560    1.6920 n         1 MOL     -0.392574
    160 C53        -3.7980   -1.5180    2.7050 c3        1 MOL      0.059246
    161 C54        -4.0910   -1.1010    4.1260 c         1 MOL      0.467303
    162 O24        -4.1060   -1.9520    5.0330 o         1 MOL     -0.538804
    163 C55        -2.3210   -1.2580    2.3940 c3        1 MOL      0.103454
    164 C56        -1.7910   -1.7840    1.0420 c3        1 MOL      0.109820
    165 C57        -0.4450   -1.2340    0.6670 c         1 MOL      0.644058
    166 O25         0.3400   -1.9560    0.0510 o         1 MOL     -0.677570
    167 O26        -0.0300   -0.0810    1.0660 o         1 MOL     -0.677570
    168 H71        -4.5380   -0.0310    1.3300 hn        1 MOL     -0.028937
    169 H72        -3.9050   -2.6070    2.7200 h1        1 MOL      0.013649
    170 H73        -1.7820   -1.7610    3.2080 hc        1 MOL     -0.018869
    171 H74        -2.1400   -0.1930    2.5220 hc        1 MOL     -0.018869
    172 H75        -2.5280   -1.7120    0.2370 hc        1 MOL     -0.008901
    173 H76        -1.6730   -2.8530    1.2290 hc        1 MOL     -0.008901
    174 N15        -4.3330    0.2420    4.2610 n         1 MOL     -0.181245
    175 C58        -4.7070    0.8540    5.5670 c3        1 MOL     -0.219839
    176 H77        -4.8170    1.9310    5.4440 h1        1 MOL      0.086879
    177 H78        -5.6500    0.4300    5.9110 h1        1 MOL      0.086879
    178 H79        -3.9270    0.6500    6.3000 h1        1 MOL      0.086879
    179 H80        -4.2870    0.8400    3.4410 hn        1 MOL      0.219832
    180 Ca1         2.4280   -0.3030    0.1960 Ca        1 MOL      1.739009
    181 O27         1.9870   -0.7680    2.8320 oh        1 MOL     -0.886819
    182 H81         1.5200   -1.4950    3.2350 ho        1 MOL      0.415014
    183 H82         2.4800   -0.3710    3.5510 ho        1 MOL      0.415014
    184 O28         4.8450   -0.6520    1.4660 oh        1 MOL     -0.886819
    185 H83         5.3300   -0.0390    2.0160 ho        1 MOL      0.415014
    186 H84         5.2040   -1.5140    1.6970 ho        1 MOL      0.415014
    187 O29         0.9920    1.0510   -1.6800 oh        1 MOL     -0.886819
    188 H85         1.5970    1.7700   -1.8450 ho        1 MOL      0.415014
    189 H86         1.0810    0.4850   -2.4540 ho        1 MOL      0.415014
@<TRIPOS>BOND
     1    1    2 1   
     2    1    4 1   
     3    1    5 1   
     4    1    6 1   
     5    2    3 2   
     6    2    7 1   
     7    7    8 1   
     8    7   15 1   
     9    8    9 1   
    10    8   11 1   
    11    8   16 1   
    12    9   10 2   
    13    9   19 1   
    14   11   12 1   
    15   11   17 1   
    16   11   18 1   
    17   12   13 1   
    18   12   14 1   
    19   19   20 1   
    20   19   27 1   
    21   20   21 1   
    22   20   23 1   
    23   20   28 1   
    24   21   22 2   
    25   21   38 1   
    26   23   24 1   
    27   23   25 1   
    28   23   29 1   
    29   24   26 1   
    30   24   30 1   
    31   24   31 1   
    32   25   32 1   
    33   25   33 1   
    34   25   34 1   
    35   26   35 1   
    36   26   36 1   
    37   26   37 1   
    38   38   39 1   
    39   38   46 1   
    40   39   40 1   
    41   39   42 1   
    42   39   47 1   
    43   40   41 2   
    44   40   50 1   
    45   42   43 1   
    46   42   48 1   
    47   42   49 1   
    48   43   44 1   
    49   43   45 1   
    50   50   51 1   
    51   50   54 1   
    52   51   52 1   
    53   51   55 1   
    54   51   56 1   
    55   52   53 2   
    56   52   57 1   
    57   57   58 1   
    58   57   65 1   
    59   58   59 1   
    60   58   61 1   
    61   58   66 1   
    62   59   60 2   
    63   59   69 1   
    64   61   62 1   
    65   61   67 1   
    66   61   68 1   
    67   62   63 1   
    68   62   64 1   
    69   69   70 1   
    70   69   73 1   
    71   70   71 1   
    72   70   74 1   
    73   70   75 1   
    74   71   72 2   
    75   71   76 1   
    76   76   77 1   
    77   76   85 1   
    78   77   78 1   
    79   77   80 1   
    80   77   86 1   
    81   78   79 2   
    82   78   93 1   
    83   80   81 1   
    84   80   87 1   
    85   80   88 1   
    86   81   82 1   
    87   81   89 1   
    88   81   90 1   
    89   82   83 1   
    90   82   84 2   
    91   83   91 1   
    92   83   92 1   
    93   93   94 1   
    94   93  100 1   
    95   94   95 1   
    96   94   97 1   
    97   94  101 1   
    98   95   96 2   
    99   95  109 1   
   100   97   98 1   
   101   97   99 1   
   102   97  102 1   
   103   98  103 1   
   104   98  104 1   
   105   98  105 1   
   106   99  106 1   
   107   99  107 1   
   108   99  108 1   
   109  109  110 1   
   110  109  117 1   
   111  110  111 1   
   112  110  113 1   
   113  110  118 1   
   114  111  112 2   
   115  111  123 1   
   116  113  114 1   
   117  113  119 1   
   118  113  120 1   
   119  114  115 1   
   120  114  116 2   
   121  115  121 1   
   122  115  122 1   
   123  123  124 1   
   124  123  135 1   
   125  124  125 1   
   126  124  127 1   
   127  124  136 1   
   128  125  126 2   
   129  125  144 1   
   130  127  128 1   
   131  127  137 1   
   132  127  138 1   
   133  128  129 ar  
   134  128  130 ar  
   135  129  131 ar  
   136  129  139 1   
   137  130  132 ar  
   138  130  140 1   
   139  131  133 ar  
   140  131  141 1   
   141  132  133 ar  
   142  132  142 1   
   143  133  134 1   
   144  134  143 1   
   145  144  145 1   
   146  144  153 1   
   147  145  146 1   
   148  145  148 1   
   149  145  154 1   
   150  146  147 2   
   151  146  159 1   
   152  148  149 1   
   153  148  155 1   
   154  148  156 1   
   155  149  150 1   
   156  149  157 1   
   157  149  158 1   
   158  150  151 1   
   159  150  152 1   
   160  159  160 1   
   161  159  168 1   
   162  160  161 1   
   163  160  163 1   
   164  160  169 1   
   165  161  162 2   
   166  161  174 1   
   167  163  164 1   
   168  163  170 1   
   169  163  171 1   
   170  164  165 1   
   171  164  172 1   
   172  164  173 1   
   173  165  166 1   
   174  165  167 1   
   175  174  175 1   
   176  174  179 1   
   177  175  176 1   
   178  175  177 1   
   179  175  178 1   
   180  181  182 1   
   181  181  183 1   
   182  184  185 1   
   183  184  186 1   
   184  187  188 1   
   185  187  189 1   
@<TRIPOS>SUBSTRUCTURE
     1 MOL         1 TEMP              0 ****  ****    0 ROOT
