@<TRIPOS>MOLECULE
MOL
  189   185     1     0     0
SMALL
resp


@<TRIPOS>ATOM
      1 C1         -0.5790    1.6590    6.1690 c3        1 MOL     -0.243567
      2 C2         -0.8400    1.3530    4.6800 c         1 MOL      0.698838
      3 O1          0.0530    1.4100    3.7750 o         1 MOL     -0.638512
      4 H1         -0.9210    2.6680    6.3970 hc        1 MOL      0.069665
      5 H2         -1.1210    0.9440    6.7880 hc        1 MOL      0.069665
      6 H3          0.4890    1.5830    6.3740 hc        1 MOL      0.069665
      7 N1         -2.0580    0.9400    4.2550 n         1 MOL     -0.556447
      8 C3         -2.6050    1.0120    2.8800 c3        1 MOL      0.012353
      9 C4         -2.8700    2.5010    2.5130 c         1 MOL      0.503657
     10 O2         -3.9230    3.0740    2.8160 o         1 MOL     -0.481560
     11 C5         -3.8400    0.0930    2.8070 c3        1 MOL     -0.143859
     12 C6         -4.4810    0.0740    1.4170 c         1 MOL      0.706167
     13 O3         -3.8780    0.4820    0.4100 o         1 MOL     -0.638599
     14 O4         -5.6640   -0.3780    1.4540 o         1 MOL     -0.638599
     15 H4         -2.7540    0.6270    4.9300 hn        1 MOL      0.312635
     16 H5         -1.7600    0.6330    2.3080 h1        1 MOL      0.042241
     17 H6         -4.6010    0.4990    3.4700 hc        1 MOL      0.047145
     18 H7         -3.6200   -0.9370    3.1020 hc        1 MOL      0.047145
     19 N2         -1.8540    3.1240    1.8890 n         1 MOL     -0.283798
     20 C7         -1.9130    4.6480    1.6480 c3        1 MOL     -0.081114
     21 C8         -2.9390    5.0580    0.5110 c         1 MOL      0.322589
     22 O5         -3.6510    6.0580    0.6190 o         1 MOL     -0.530966
     23 C9         -0.4840    5.1350    1.3320 c3        1 MOL     -0.096108
     24 C10        -0.2970    6.6910    1.6040 c3        1 MOL      0.359823
     25 C11         1.0320    7.2270    1.7090 c3        1 MOL     -0.066788
     26 C12         1.8280    6.8430    0.4190 c3        1 MOL      0.116624
     27 N3          3.1060    7.6290    0.2510 n4        1 MOL     -0.447126
     28 H8         -0.9580    2.6770    1.7270 hn        1 MOL      0.229528
     29 H9         -2.1760    5.1020    2.5970 h1        1 MOL      0.107074
     30 H10        -0.2710    4.9290    0.2830 hc        1 MOL      0.017158
     31 H11         0.2910    4.6100    1.8940 hc        1 MOL      0.017158
     32 H12        -0.8230    7.0190    2.5060 hc        1 MOL     -0.065577
     33 H13        -0.7720    7.1990    0.7700 hc        1 MOL     -0.065577
     34 H14         1.4880    6.8150    2.6160 hc        1 MOL      0.023638
     35 H15         0.8490    8.2950    1.7440 hc        1 MOL      0.023638
     36 H16         1.2540    7.1140   -0.4680 hx        1 MOL      0.056812
     37 H17         2.1100    5.7940    0.5090 hx        1 MOL      0.056812
     38 H18         3.4200    7.6340   -0.7010 hn        1 MOL      0.341056
     39 H19         2.9900    8.5950    0.5430 hn        1 MOL      0.341056
     40 H20         3.8070    7.2220    0.8520 hn        1 MOL      0.341056
     41 N4         -2.9680    4.2760   -0.5450 n         1 MOL     -0.011710
     42 C13        -3.8080    4.5230   -1.6690 c3        1 MOL      0.050185
     43 C14        -5.1790    4.0120   -1.5220 c         1 MOL      0.421572
     44 O6         -6.1590    4.4760   -2.1800 o         1 MOL     -0.529670
     45 C15        -3.1900    4.0790   -2.9590 c3        1 MOL     -0.409516
     46 C16        -2.7980    2.5960   -3.0990 c         1 MOL      0.846716
     47 O7         -2.4370    2.1860   -4.1830 o         1 MOL     -0.717207
     48 O8         -2.7920    1.8780   -2.1030 o         1 MOL     -0.717207
     49 H21        -2.3500    3.4790   -0.5920 hn        1 MOL      0.160187
     50 H22        -4.0210    5.5890   -1.7430 h1        1 MOL      0.057446
     51 H23        -2.3300    4.7450   -3.0720 hc        1 MOL      0.094081
     52 H24        -3.9170    4.2250   -3.7550 hc        1 MOL      0.094081
     53 N5         -5.3340    3.0780   -0.5460 n         1 MOL      0.075132
     54 C17        -6.5710    2.3760   -0.1950 c3        1 MOL     -0.217898
     55 C18        -7.0280    1.3860   -1.2630 c         1 MOL      0.740673
     56 O9         -7.7730    1.8700   -2.1320 o         1 MOL     -0.536007
     57 H25        -4.4600    2.7380   -0.1530 hn        1 MOL     -0.054301
     58 H26        -7.3500    3.1270   -0.1230 h1        1 MOL      0.073425
     59 H27        -6.3690    1.8550    0.7490 h1        1 MOL      0.073425
     60 N6         -6.5620    0.1280   -1.1870 n         1 MOL     -0.683728
     61 C19        -6.8710   -0.9050   -2.2530 c3        1 MOL      0.203049
     62 C20        -7.2280   -2.2450   -1.5350 c         1 MOL      0.348286
     63 O10        -7.7860   -3.1840   -2.1400 o         1 MOL     -0.537625
     64 C21        -5.7800   -1.0610   -3.3110 c3        1 MOL     -0.368957
     65 C22        -4.4430   -1.4250   -2.7380 c         1 MOL      0.759573
     66 O11        -3.4470   -1.4050   -3.4890 o         1 MOL     -0.696828
     67 O12        -4.2330   -1.5660   -1.4920 o         1 MOL     -0.696828
     68 H28        -5.9450   -0.0360   -0.4050 hn        1 MOL      0.310046
     69 H29        -7.7490   -0.6210   -2.8300 h1        1 MOL      0.064715
     70 H30        -5.6170   -0.0690   -3.7350 hc        1 MOL      0.141505
     71 H31        -6.0630   -1.7620   -4.0910 hc        1 MOL      0.141505
     72 N7         -6.9270   -2.3590   -0.2780 n         1 MOL     -0.133257
     73 C23        -7.0060   -3.4910    0.6540 c3        1 MOL     -0.196170
     74 C24        -5.6650   -4.3180    0.7950 c         1 MOL      0.649932
     75 O13        -5.7790   -5.4550    1.2510 o         1 MOL     -0.602009
     76 H32        -6.4320   -1.6180    0.2010 hn        1 MOL      0.203000
     77 H33        -7.7040   -4.2240    0.2490 h1        1 MOL      0.104913
     78 H34        -7.2730   -3.1550    1.6580 h1        1 MOL      0.104913
     79 N8         -4.4800   -3.7860    0.4520 n         1 MOL     -0.455204
     80 C25        -3.1250   -4.3640    0.2790 c3        1 MOL      0.058918
     81 C26        -2.0440   -3.4460    0.6480 c         1 MOL      0.491855
     82 O14        -2.2340   -2.2430    0.7230 o         1 MOL     -0.514595
     83 C27        -2.9010   -4.8940   -1.1420 c3        1 MOL      0.552346
     84 C28        -3.4670   -6.3100   -1.2610 c3        1 MOL     -0.376483
     85 O15        -3.4840   -4.1410   -2.1590 oh        1 MOL     -0.679122
     86 H35        -4.5420   -2.8470    0.1010 hn        1 MOL      0.214333
     87 H36        -3.0370   -5.2370    0.9330 h1        1 MOL      0.045091
     88 H37        -1.8330   -5.0190   -1.2830 h1        1 MOL     -0.058205
     89 H38        -3.7080   -3.2550   -1.8580 ho        1 MOL      0.459543
     90 H39        -4.4830   -6.3590   -0.8730 hc        1 MOL      0.079748
     91 H40        -3.5500   -6.7530   -2.2530 hc        1 MOL      0.079748
     92 H41        -2.7990   -6.9050   -0.6400 hc        1 MOL      0.079748
     93 N9         -0.8470   -4.0680    0.8530 n         1 MOL     -0.526659
     94 C29         0.4040   -3.4280    1.2140 c3        1 MOL      0.047226
     95 C30         1.5020   -3.8500    0.1990 c         1 MOL      0.377589
     96 O16         1.8190   -5.0540    0.0280 o         1 MOL     -0.508083
     97 C31         0.6360   -3.6280    2.7030 c3        1 MOL      0.056327
     98 C32        -0.2090   -2.7620    3.6480 c3        1 MOL     -0.147564
     99 C33         2.1200   -3.5830    3.1190 c3        1 MOL     -0.024846
    100 C34        -0.0320   -3.1990    5.0980 c3        1 MOL     -0.151482
    101 H42        -0.8930   -5.0690    0.8520 hn        1 MOL      0.304867
    102 H43         0.3720   -2.3480    1.0970 h1        1 MOL      0.020052
    103 H44         0.2300   -4.6010    2.9710 hc        1 MOL      0.018437
    104 H45        -1.2790   -2.8990    3.4450 hc        1 MOL      0.104506
    105 H46         0.0040   -1.6990    3.5290 hc        1 MOL      0.104506
    106 H47         2.3640   -3.9870    4.1020 hc        1 MOL      0.002152
    107 H48         2.7370   -4.2190    2.4910 hc        1 MOL      0.002152
    108 H49         2.4750   -2.5460    3.1250 hc        1 MOL      0.002152
    109 H50        -0.8300   -2.7760    5.7100 hc        1 MOL      0.038022
    110 H51         0.0620   -4.2730    5.2600 hc        1 MOL      0.038022
    111 H52         0.8610   -2.7200    5.4890 hc        1 MOL      0.038022
    112 N10         2.1250   -2.8470   -0.5000 n         1 MOL     -0.165635
    113 C35         3.3050   -2.9420   -1.3680 c3        1 MOL     -0.092948
    114 C36         4.5620   -2.9320   -0.5120 c         1 MOL      0.368933
    115 O17         4.5350   -2.6130    0.6920 o         1 MOL     -0.341207
    116 C37         3.3760   -1.8180   -2.4420 c3        1 MOL      0.131825
    117 C38         2.0940   -1.9030   -3.2980 c3        1 MOL     -0.455877
    118 O18         3.4310   -0.5830   -1.7450 oh        1 MOL     -0.416284
    119 H53         1.8230   -1.9010   -0.3590 hn        1 MOL      0.322490
    120 H54         3.3030   -3.8560   -1.9630 h1        1 MOL      0.071379
    121 H55         4.3090   -1.8880   -2.9910 h1        1 MOL      0.046384
    122 H56         3.5420    0.0530   -2.4640 ho        1 MOL      0.344942
    123 H57         1.6250   -2.8800   -3.3710 hc        1 MOL      0.138886
    124 H58         1.3260   -1.2270   -2.9160 hc        1 MOL      0.138886
    125 H59         2.4180   -1.6880   -4.3170 hc        1 MOL      0.138886
    126 N11         5.7800   -2.9660   -1.1230 n         1 MOL     -0.248985
    127 C39         7.0340   -2.7290   -0.5340 c3        1 MOL     -0.109068
    128 C40         7.2660   -1.3370   -0.0050 c         1 MOL      0.378818
    129 O19         7.6900   -1.3140    1.1600 o         1 MOL     -0.493729
    130 C41         8.1040   -2.9360   -1.6510 c3        1 MOL      0.242205
    131 C42         8.5260   -4.4780   -1.8450 c3        1 MOL     -0.471924
    132 O20         7.6250   -2.4520   -2.9370 oh        1 MOL     -0.682396
    133 H60         5.7520   -3.0670   -2.1300 hn        1 MOL      0.223582
    134 H61         7.0680   -3.4810    0.2560 h1        1 MOL      0.154660
    135 H62         9.0130   -2.3710   -1.4390 h1        1 MOL      0.076550
    136 H63         8.0930   -2.9680   -3.6060 ho        1 MOL      0.436921
    137 H64         8.4610   -5.0970   -0.9480 hc        1 MOL      0.141772
    138 H65         7.8590   -4.8950   -2.5970 hc        1 MOL      0.141772
    139 H66         9.5070   -4.4160   -2.3280 hc        1 MOL      0.141772
    140 N12         6.9330   -0.2270   -0.6060 n         1 MOL     -0.277194
    141 C43         7.0050    1.1180   -0.0520 c3        1 MOL      0.037555
    142 C44         6.0900    1.2950    1.1590 c         1 MOL      0.285196
    143 O21         6.5240    1.9380    2.1430 o         1 MOL     -0.481553
    144 C45         6.7550    2.1290   -1.2270 c3        1 MOL     -0.121615
    145 C46         7.9440    2.4360   -2.2040 c3        1 MOL      0.073836
    146 C47         7.5440    3.2020   -3.4790 c3        1 MOL     -0.247627
    147 C48         8.7460    3.7480   -4.3090 c3        1 MOL     -0.025832
    148 N13         9.2480    2.5380   -5.1050 n4        1 MOL     -0.271056
    149 H67         6.4650   -0.3590   -1.4920 hn        1 MOL      0.223335
    150 H68         8.0170    1.3750    0.2730 h1        1 MOL      0.104120
    151 H69         6.3350    3.0630   -0.8690 hc        1 MOL      0.037735
    152 H70         5.9540    1.6630   -1.8090 hc        1 MOL      0.037735
    153 H71         8.5620    1.6030   -2.5530 hc        1 MOL      0.017260
    154 H72         8.6450    3.0220   -1.6220 hc        1 MOL      0.017260
    155 H73         6.9430    4.0210   -3.0760 hc        1 MOL      0.099228
    156 H74         6.8030    2.7210   -4.1150 hc        1 MOL      0.099228
    157 H75         9.5270    4.2450   -3.7530 hx        1 MOL      0.126934
    158 H76         8.3660    4.4990   -5.0040 hx        1 MOL      0.126934
    159 H77         8.4500    2.1360   -5.5740 hn        1 MOL      0.246329
    160 H78         9.9990    2.7780   -5.7380 hn        1 MOL      0.246329
    161 H79         9.6660    1.8210   -4.5260 hn        1 MOL      0.246329
    162 N14         4.8550    0.7970    1.1290 n         1 MOL     -0.073955
    163 C49         4.0310    0.8590    2.2770 c3        1 MOL     -0.143708
    164 C50         4.5640    0.0180    3.4570 c         1 MOL      0.400349
    165 O22         4.4200    0.4650    4.6140 o         1 MOL     -0.545241
    166 C51         2.6320    0.2880    1.8840 c3        1 MOL      0.373560
    167 C52         1.9820    1.1830    0.8610 c3        1 MOL     -0.371018
    168 C53         0.6600    0.6660    0.3150 c         1 MOL      0.746187
    169 O23         0.4690   -0.4770   -0.1510 o         1 MOL     -0.719169
    170 O24        -0.2970    1.4020   -0.0040 o         1 MOL     -0.719169
    171 H80         4.5310    0.3670    0.2830 hn        1 MOL      0.168048
    172 H81         3.8030    1.8520    2.6610 h1        1 MOL      0.103413
    173 H82         1.9180    0.2700    2.7040 hc        1 MOL     -0.037276
    174 H83         2.6910   -0.6930    1.4160 hc        1 MOL     -0.037276
    175 H84         2.7530    1.2230    0.1010 hc        1 MOL      0.036676
    176 H85         1.8790    2.1850    1.2930 hc        1 MOL      0.036676
    177 N15         5.1740   -1.1390    3.1930 n         1 MOL      0.062017
    178 C54         5.9120   -1.9510    4.2110 c3        1 MOL     -0.405710
    179 H86         5.6180   -1.6330    5.2110 h1        1 MOL      0.138888
    180 H87         5.6710   -3.0050    4.0800 h1        1 MOL      0.138888
    181 H88         6.9850   -1.8050    4.0840 h1        1 MOL      0.138888
    182 H89         5.0710   -1.5370    2.2680 hn        1 MOL      0.045717
    183 Ca1        -2.0260   -0.2470   -1.1260 Ca        1 MOL      1.707297
    184 O25        -0.5850    0.4890   -3.2380 oh        1 MOL     -0.889170
    185 H90        -1.3360    0.9920   -3.5380 ho        1 MOL      0.408406
    186 H91        -0.0820    0.3100   -4.0330 ho        1 MOL      0.408406
    187 O26        -0.6840   -2.4280   -1.9910 oh        1 MOL     -0.889170
    188 H92         0.2300   -2.1500   -1.9430 ho        1 MOL      0.408406
    189 H93        -0.7130   -3.0500   -2.7130 ho        1 MOL      0.408406
@<TRIPOS>BOND
     1    1    2 1   
     2    1    4 1   
     3    1    5 1   
     4    1    6 1   
     5    2    3 2   
     6    2    7 1   
     7    7    8 1   
     8    7   15 1   
     9    8    9 1   
    10    8   11 1   
    11    8   16 1   
    12    9   10 2   
    13    9   19 1   
    14   11   12 1   
    15   11   17 1   
    16   11   18 1   
    17   12   13 1   
    18   12   14 1   
    19   19   20 1   
    20   19   28 1   
    21   20   21 1   
    22   20   23 1   
    23   20   29 1   
    24   21   22 2   
    25   21   41 1   
    26   23   24 1   
    27   23   30 1   
    28   23   31 1   
    29   24   25 1   
    30   24   32 1   
    31   24   33 1   
    32   25   26 1   
    33   25   34 1   
    34   25   35 1   
    35   26   27 1   
    36   26   36 1   
    37   26   37 1   
    38   27   38 1   
    39   27   39 1   
    40   27   40 1   
    41   41   42 1   
    42   41   49 1   
    43   42   43 1   
    44   42   45 1   
    45   42   50 1   
    46   43   44 2   
    47   43   53 1   
    48   45   46 1   
    49   45   51 1   
    50   45   52 1   
    51   46   47 1   
    52   46   48 1   
    53   53   54 1   
    54   53   57 1   
    55   54   55 1   
    56   54   58 1   
    57   54   59 1   
    58   55   56 2   
    59   55   60 1   
    60   60   61 1   
    61   60   68 1   
    62   61   62 1   
    63   61   64 1   
    64   61   69 1   
    65   62   63 2   
    66   62   72 1   
    67   64   65 1   
    68   64   70 1   
    69   64   71 1   
    70   65   66 1   
    71   65   67 1   
    72   72   73 1   
    73   72   76 1   
    74   73   74 1   
    75   73   77 1   
    76   73   78 1   
    77   74   75 2   
    78   74   79 1   
    79   79   80 1   
    80   79   86 1   
    81   80   81 1   
    82   80   83 1   
    83   80   87 1   
    84   81   82 2   
    85   81   93 1   
    86   83   84 1   
    87   83   85 1   
    88   83   88 1   
    89   84   90 1   
    90   84   91 1   
    91   84   92 1   
    92   85   89 1   
    93   93   94 1   
    94   93  101 1   
    95   94   95 1   
    96   94   97 1   
    97   94  102 1   
    98   95   96 2   
    99   95  112 1   
   100   97   98 1   
   101   97   99 1   
   102   97  103 1   
   103   98  100 1   
   104   98  104 1   
   105   98  105 1   
   106   99  106 1   
   107   99  107 1   
   108   99  108 1   
   109  100  109 1   
   110  100  110 1   
   111  100  111 1   
   112  112  113 1   
   113  112  119 1   
   114  113  114 1   
   115  113  116 1   
   116  113  120 1   
   117  114  115 2   
   118  114  126 1   
   119  116  117 1   
   120  116  118 1   
   121  116  121 1   
   122  117  123 1   
   123  117  124 1   
   124  117  125 1   
   125  118  122 1   
   126  126  127 1   
   127  126  133 1   
   128  127  128 1   
   129  127  130 1   
   130  127  134 1   
   131  128  129 2   
   132  128  140 1   
   133  130  131 1   
   134  130  132 1   
   135  130  135 1   
   136  131  137 1   
   137  131  138 1   
   138  131  139 1   
   139  132  136 1   
   140  140  141 1   
   141  140  149 1   
   142  141  142 1   
   143  141  144 1   
   144  141  150 1   
   145  142  143 2   
   146  142  162 1   
   147  144  145 1   
   148  144  151 1   
   149  144  152 1   
   150  145  146 1   
   151  145  153 1   
   152  145  154 1   
   153  146  147 1   
   154  146  155 1   
   155  146  156 1   
   156  147  148 1   
   157  147  157 1   
   158  147  158 1   
   159  148  159 1   
   160  148  160 1   
   161  148  161 1   
   162  162  163 1   
   163  162  171 1   
   164  163  164 1   
   165  163  166 1   
   166  163  172 1   
   167  164  165 2   
   168  164  177 1   
   169  166  167 1   
   170  166  173 1   
   171  166  174 1   
   172  167  168 1   
   173  167  175 1   
   174  167  176 1   
   175  168  169 1   
   176  168  170 1   
   177  177  178 1   
   178  177  182 1   
   179  178  179 1   
   180  178  180 1   
   181  178  181 1   
   182  184  185 1   
   183  184  186 1   
   184  187  188 1   
   185  187  189 1   
@<TRIPOS>SUBSTRUCTURE
     1 MOL         1 TEMP              0 ****  ****    0 ROOT
