@<TRIPOS>MOLECULE
MOL
  175   173     1     0     0
SMALL
resp


@<TRIPOS>ATOM
      1 C1          0.1390    3.1100    5.6180 c3        1 MOL     -0.425637
      2 C2         -0.2840    2.7980    4.2580 c         1 MOL      0.728907
      3 O1          0.1570    3.5060    3.3020 o         1 MOL     -0.611326
      4 H1         -0.0670    2.2580    6.2660 hc        1 MOL      0.105225
      5 H2          1.2080    3.3210    5.6260 hc        1 MOL      0.105225
      6 H3         -0.4080    3.9810    5.9780 hc        1 MOL      0.105225
      7 N1         -1.2250    1.9000    4.0330 n         1 MOL     -0.506009
      8 C3         -1.8460    1.6630    2.6860 c3        1 MOL      0.169129
      9 C4         -2.4560    3.0010    2.1770 c         1 MOL      0.381025
     10 O2         -3.4790    3.5130    2.6170 o         1 MOL     -0.552795
     11 C5         -2.8740    0.5810    2.8490 c3        1 MOL     -0.271787
     12 C6         -3.6760    0.2890    1.5480 c         1 MOL      0.754545
     13 O3         -4.5900   -0.5970    1.7090 o         1 MOL     -0.762825
     14 O4         -3.3480    0.7180    0.3610 o         1 MOL     -0.762825
     15 H4         -1.6550    1.3750    4.7850 hn        1 MOL      0.283751
     16 H5         -1.0420    1.3880    2.0060 h1        1 MOL      0.007140
     17 H6         -3.5810    0.8090    3.6460 hc        1 MOL      0.072483
     18 H7         -2.3370   -0.3460    3.0440 hc        1 MOL      0.072483
     19 N2         -1.8340    3.7020    1.2300 n         1 MOL     -0.101665
     20 C7         -2.2010    5.0520    0.7130 c3        1 MOL      0.082893
     21 C8         -3.5300    5.1530   -0.0370 c         1 MOL      0.344657
     22 O5         -4.2350    6.1780    0.0830 o         1 MOL     -0.571947
     23 C9         -1.0770    5.5440   -0.1840 c3        1 MOL     -0.297294
     24 H8         -1.0480    3.2740    0.7520 hn        1 MOL      0.230749
     25 H9         -2.2020    5.7250    1.5740 h1        1 MOL      0.061647
     26 H10        -0.8580    4.8410   -0.9800 hc        1 MOL      0.078267
     27 H11        -1.2570    6.4370   -0.7890 hc        1 MOL      0.078267
     28 H12        -0.1370    5.7110    0.3420 hc        1 MOL      0.078267
     29 N3         -3.8580    4.1470   -0.8400 n         1 MOL     -0.087140
     30 C10        -5.0660    4.0550   -1.6400 c3        1 MOL      0.071387
     31 C11        -6.1250    3.2610   -0.8360 c         1 MOL      0.321565
     32 O6         -7.3010    3.2080   -1.2750 o         1 MOL     -0.560640
     33 C12        -4.6410    3.5700   -3.0390 c3        1 MOL     -0.114271
     34 C13        -3.5370    2.5400   -3.2650 c         1 MOL      0.595383
     35 O7         -2.7730    2.6700   -4.2580 o         1 MOL     -0.641345
     36 O8         -3.3370    1.6840   -2.3270 o         1 MOL     -0.641345
     37 H13        -3.2980    3.3110   -0.8610 hn        1 MOL      0.152128
     38 H14        -5.4720    5.0520   -1.8310 h1        1 MOL      0.085630
     39 H15        -4.3600    4.4760   -3.5680 hc        1 MOL      0.016721
     40 H16        -5.5310    3.2390   -3.5770 hc        1 MOL      0.016721
     41 N4         -5.8470    2.7110    0.3420 n         1 MOL     -0.066841
     42 C14        -6.8200    1.9370    1.1220 c3        1 MOL     -0.086940
     43 C15        -7.2980    0.6400    0.5220 c         1 MOL      0.523045
     44 O9         -8.3960    0.1950    0.8270 o         1 MOL     -0.614967
     45 H17        -4.9220    2.7770    0.7330 hn        1 MOL      0.081987
     46 H18        -7.6010    2.5720    1.5400 h1        1 MOL      0.074096
     47 H19        -6.2680    1.5910    1.9890 h1        1 MOL      0.074096
     48 N5         -6.5560    0.1190   -0.4680 n         1 MOL     -0.231500
     49 C16        -6.9680   -1.0780   -1.2820 c3        1 MOL     -0.071800
     50 C17        -6.7120   -2.3970   -0.5220 c         1 MOL      0.426819
     51 O10        -6.7430   -3.4490   -1.1890 o         1 MOL     -0.522513
     52 C18        -6.2210   -0.9990   -2.6750 c3        1 MOL     -0.310792
     53 C19        -4.9370   -1.7430   -2.8470 c         1 MOL      0.603591
     54 N6         -4.8250   -2.5990   -3.7920 n         1 MOL     -0.706154
     55 O11        -4.0040   -1.4030   -2.1210 o         1 MOL     -0.628178
     56 H20        -5.6400    0.5030   -0.6710 hn        1 MOL      0.260526
     57 H21        -8.0290   -0.9650   -1.4620 h1        1 MOL      0.134016
     58 H22        -6.0960    0.0350   -3.0130 hc        1 MOL      0.107751
     59 H23        -6.8390   -1.5630   -3.3790 hc        1 MOL      0.107751
     60 H24        -5.5480   -2.7730   -4.4710 hn        1 MOL      0.367115
     61 H25        -4.0060   -3.1960   -3.7210 hn        1 MOL      0.367115
     62 N7         -6.5680   -2.3720    0.7890 n         1 MOL     -0.221529
     63 C20        -6.5030   -3.5270    1.6790 c3        1 MOL     -0.190123
     64 C21        -5.0660   -4.1500    1.8250 c         1 MOL      0.728655
     65 O12        -4.9140   -5.0690    2.5400 o         1 MOL     -0.601542
     66 H26        -6.5020   -1.4680    1.2520 hn        1 MOL      0.312156
     67 H27        -7.2620   -4.2460    1.3870 h1        1 MOL      0.090184
     68 H28        -6.7640   -3.1870    2.6850 h1        1 MOL      0.090184
     69 N8         -3.9920   -3.5220    1.2780 n         1 MOL     -0.431724
     70 C22        -2.6900   -4.1740    1.0400 c3        1 MOL     -0.055422
     71 C23        -1.6260   -3.0340    0.9920 c         1 MOL      0.600280
     72 O13        -1.8010   -1.9360    0.4480 o         1 MOL     -0.455363
     73 C24        -2.6290   -5.0180   -0.2120 c3        1 MOL      0.346754
     74 C25        -3.1640   -6.4090    0.0730 c3        1 MOL     -0.290136
     75 O14        -3.5310   -4.5060   -1.1220 oh        1 MOL     -0.516869
     76 H29        -4.1820   -2.8310    0.5620 hn        1 MOL      0.273755
     77 H30        -2.3600   -4.7830    1.8830 h1        1 MOL      0.078340
     78 H31        -1.6110   -5.0400   -0.6060 h1        1 MOL      0.015051
     79 H32        -3.2220   -3.6130   -1.3250 ho        1 MOL      0.267628
     80 H33        -4.1370   -6.3980    0.5520 hc        1 MOL      0.065751
     81 H34        -3.1950   -7.0030   -0.8350 hc        1 MOL      0.065751
     82 H35        -2.3960   -6.8820    0.6870 hc        1 MOL      0.065751
     83 N9         -0.4780   -3.3950    1.5630 n         1 MOL     -0.732264
     84 C26         0.7230   -2.5510    1.6520 c3        1 MOL      0.128730
     85 C27         1.5600   -2.8580    0.4200 c         1 MOL      0.551780
     86 O15         1.9620   -4.0200    0.2050 o         1 MOL     -0.616962
     87 C28         1.5620   -2.7600    2.9340 c3        1 MOL      0.095756
     88 C29         0.7220   -2.8620    4.2500 c3        1 MOL      0.302895
     89 C30         2.6610   -1.7740    3.0170 c3        1 MOL     -0.119806
     90 C31         1.3740   -3.2450    5.5500 c3        1 MOL     -0.386953
     91 H36        -0.4220   -4.3470    1.9020 hn        1 MOL      0.350131
     92 H37         0.4470   -1.4920    1.6290 h1        1 MOL      0.149871
     93 H38         2.0300   -3.7370    2.9080 hc        1 MOL     -0.028767
     94 H39         0.0310   -3.6850    4.0760 hc        1 MOL     -0.070139
     95 H40         0.2030   -1.9040    4.3380 hc        1 MOL     -0.070139
     96 H41         3.2270   -1.9000    3.9480 hc        1 MOL     -0.000167
     97 H42         3.3620   -1.9690    2.2030 hc        1 MOL     -0.000167
     98 H43         2.4630   -0.7060    2.9400 hc        1 MOL     -0.000167
     99 H44         0.5220   -3.3990    6.2100 hc        1 MOL      0.082307
    100 H45         1.8780   -4.2180    5.5320 hc        1 MOL      0.082307
    101 H46         2.1170   -2.4860    5.8180 hc        1 MOL      0.082307
    102 N10         2.0270   -1.8120   -0.3010 n         1 MOL     -0.034969
    103 C32         3.0880   -1.8470   -1.3800 c3        1 MOL      0.017341
    104 C33         4.4360   -1.4570   -0.7890 c         1 MOL      0.431516
    105 O16         4.5520   -0.9370    0.3330 o         1 MOL     -0.262966
    106 C34         2.6790   -0.9110   -2.4840 c3        1 MOL     -0.421494
    107 C35         1.3000   -1.1880   -3.0260 c         1 MOL      0.836634
    108 O17         0.3430   -0.4910   -2.6890 o         1 MOL     -0.704422
    109 O18         1.0960   -2.1640   -3.7940 o         1 MOL     -0.704422
    110 H47         1.6000   -0.9310   -0.0440 hn        1 MOL     -0.164515
    111 H48         3.2550   -2.8230   -1.8340 h1        1 MOL      0.073213
    112 H49         3.4130   -0.8500   -3.2870 hc        1 MOL      0.130973
    113 H50         2.7660    0.0700   -2.0320 hc        1 MOL      0.130973
    114 N11         5.5590   -1.8760   -1.4580 n         1 MOL     -0.677451
    115 C36         6.9140   -1.4500   -0.9620 c3        1 MOL      0.454524
    116 C37         7.0740    0.0880   -0.7450 c         1 MOL      0.456271
    117 O19         7.5300    0.4810    0.3260 o         1 MOL     -0.501377
    118 C38         7.9560   -2.0070   -1.9000 c3        1 MOL     -0.322961
    119 C39         9.2800   -1.5860   -1.2840 ca        1 MOL      0.166438
    120 C40         9.6390   -2.0560   -0.0090 ca        1 MOL     -0.237510
    121 C41        10.1090   -0.6790   -1.9650 ca        1 MOL     -0.237510
    122 C42        10.8670   -1.6510    0.5460 ca        1 MOL     -0.091826
    123 C43        11.3870   -0.3750   -1.3860 ca        1 MOL     -0.091826
    124 C44        11.7260   -0.8290   -0.1380 ca        1 MOL     -0.081448
    125 H51         5.4880   -2.3460   -2.3530 hn        1 MOL      0.354201
    126 H52         6.9520   -1.9310    0.0120 h1        1 MOL      0.009388
    127 H53         7.7250   -1.5160   -2.8490 hc        1 MOL      0.086897
    128 H54         7.9100   -3.0840   -2.0280 hc        1 MOL      0.086897
    129 H55         9.0700   -2.7190    0.6300 ha        1 MOL      0.145226
    130 H56         9.7840   -0.2230   -2.8920 ha        1 MOL      0.145226
    131 H57        11.2390   -1.9580    1.5130 ha        1 MOL      0.102040
    132 H58        12.0130    0.2160   -2.0400 ha        1 MOL      0.102040
    133 H59        12.7320   -0.6800    0.2300 ha        1 MOL      0.083387
    134 N12         6.5120    0.9620   -1.6250 n         1 MOL     -0.228975
    135 C45         6.5950    2.3780   -1.4180 c3        1 MOL      0.190684
    136 C46         5.7190    2.8150   -0.2270 c         1 MOL      0.228314
    137 O20         5.8410    4.0060    0.1660 o         1 MOL     -0.503296
    138 C47         6.1600    3.0250   -2.7150 c3        1 MOL     -0.359126
    139 C48         6.3920    1.9070   -3.7970 c3        1 MOL      0.075646
    140 C49         5.9500    0.7820   -2.9570 c3        1 MOL     -0.052387
    141 H60         7.6480    2.5530   -1.1870 h1        1 MOL      0.051228
    142 H61         5.0780    3.1460   -2.6660 hc        1 MOL      0.139440
    143 H62         6.7550    3.9340   -2.8020 hc        1 MOL      0.139440
    144 H63         5.8350    2.0810   -4.7210 hc        1 MOL      0.015028
    145 H64         7.3940    1.6860   -4.1520 hc        1 MOL      0.015028
    146 H65         4.8580    0.7620   -2.8620 h1        1 MOL      0.041300
    147 H66         6.2990   -0.1050   -3.4660 h1        1 MOL      0.041300
    148 N13         4.7970    1.9690    0.3170 n         1 MOL     -0.094245
    149 C50         3.9780    2.2790    1.4920 c3        1 MOL     -0.031193
    150 C51         4.5400    1.6490    2.7590 c         1 MOL      0.468345
    151 O21         4.3750    2.2620    3.7870 o         1 MOL     -0.573145
    152 C52         2.5280    1.7890    1.1860 c3        1 MOL      0.246831
    153 C53         1.8690    2.2550   -0.0890 c3        1 MOL     -0.000823
    154 C54         0.5510    1.5330   -0.3650 c         1 MOL      0.540403
    155 O22         0.3330    0.3800    0.1640 o         1 MOL     -0.665877
    156 O23        -0.3230    2.1000   -1.0610 o         1 MOL     -0.665877
    157 H67         4.8100    0.9890    0.0590 hn        1 MOL      0.037523
    158 H68         3.9230    3.3530    1.6400 h1        1 MOL      0.078170
    159 H69         1.9150    2.1320    2.0210 hc        1 MOL     -0.045650
    160 H70         2.6410    0.7090    1.2310 hc        1 MOL     -0.045650
    161 H71         2.4850    2.1060   -0.9780 hc        1 MOL      0.006135
    162 H72         1.6580    3.3140    0.0460 hc        1 MOL      0.006135
    163 N14         5.2910    0.5510    2.6880 n         1 MOL     -0.045515
    164 C55         6.1080   -0.0060    3.7480 c3        1 MOL     -0.115306
    165 H73         5.6810   -0.9530    4.0740 h1        1 MOL      0.055495
    166 H74         7.1200   -0.1710    3.3790 h1        1 MOL      0.055495
    167 H75         6.1360    0.6880    4.5880 h1        1 MOL      0.055495
    168 H76         5.3130    0.1370    1.7670 hn        1 MOL      0.030039
    169 Ca1        -1.8150   -0.2050   -1.5030 Ca        1 MOL      1.741266
    170 O24        -2.5220   -0.1370   -4.5890 oh        1 MOL     -0.808222
    171 H77        -3.4670   -0.2740   -4.7340 ho        1 MOL      0.372351
    172 H78        -2.4130    0.8120   -4.6390 ho        1 MOL      0.372351
    173 O25        -1.2820   -2.9390   -2.5030 oh        1 MOL     -0.808222
    174 H79        -1.8310   -3.5150   -3.0220 ho        1 MOL      0.372351
    175 H80        -0.4430   -2.9140   -2.9590 ho        1 MOL      0.372351
@<TRIPOS>BOND
     1    1    2 1   
     2    1    4 1   
     3    1    5 1   
     4    1    6 1   
     5    2    3 2   
     6    2    7 1   
     7    7    8 1   
     8    7   15 1   
     9    8    9 1   
    10    8   11 1   
    11    8   16 1   
    12    9   10 2   
    13    9   19 1   
    14   11   12 1   
    15   11   17 1   
    16   11   18 1   
    17   12   13 1   
    18   12   14 1   
    19   19   20 1   
    20   19   24 1   
    21   20   21 1   
    22   20   23 1   
    23   20   25 1   
    24   21   22 2   
    25   21   29 1   
    26   23   26 1   
    27   23   27 1   
    28   23   28 1   
    29   29   30 1   
    30   29   37 1   
    31   30   31 1   
    32   30   33 1   
    33   30   38 1   
    34   31   32 2   
    35   31   41 1   
    36   33   34 1   
    37   33   39 1   
    38   33   40 1   
    39   34   35 1   
    40   34   36 1   
    41   41   42 1   
    42   41   45 1   
    43   42   43 1   
    44   42   46 1   
    45   42   47 1   
    46   43   44 2   
    47   43   48 1   
    48   48   49 1   
    49   48   56 1   
    50   49   50 1   
    51   49   52 1   
    52   49   57 1   
    53   50   51 2   
    54   50   62 1   
    55   52   53 1   
    56   52   58 1   
    57   52   59 1   
    58   53   54 1   
    59   53   55 2   
    60   54   60 1   
    61   54   61 1   
    62   62   63 1   
    63   62   66 1   
    64   63   64 1   
    65   63   67 1   
    66   63   68 1   
    67   64   65 2   
    68   64   69 1   
    69   69   70 1   
    70   69   76 1   
    71   70   71 1   
    72   70   73 1   
    73   70   77 1   
    74   71   72 2   
    75   71   83 1   
    76   73   74 1   
    77   73   75 1   
    78   73   78 1   
    79   74   80 1   
    80   74   81 1   
    81   74   82 1   
    82   75   79 1   
    83   83   84 1   
    84   83   91 1   
    85   84   85 1   
    86   84   87 1   
    87   84   92 1   
    88   85   86 2   
    89   85  102 1   
    90   87   88 1   
    91   87   89 1   
    92   87   93 1   
    93   88   90 1   
    94   88   94 1   
    95   88   95 1   
    96   89   96 1   
    97   89   97 1   
    98   89   98 1   
    99   90   99 1   
   100   90  100 1   
   101   90  101 1   
   102  102  103 1   
   103  102  110 1   
   104  103  104 1   
   105  103  106 1   
   106  103  111 1   
   107  104  105 2   
   108  104  114 1   
   109  106  107 1   
   110  106  112 1   
   111  106  113 1   
   112  107  108 1   
   113  107  109 1   
   114  114  115 1   
   115  114  125 1   
   116  115  116 1   
   117  115  118 1   
   118  115  126 1   
   119  116  117 2   
   120  116  134 1   
   121  118  119 1   
   122  118  127 1   
   123  118  128 1   
   124  119  120 ar  
   125  119  121 ar  
   126  120  122 ar  
   127  120  129 1   
   128  121  123 ar  
   129  121  130 1   
   130  122  124 ar  
   131  122  131 1   
   132  123  124 ar  
   133  123  132 1   
   134  124  133 1   
   135  134  135 1   
   136  134  140 1   
   137  135  136 1   
   138  135  138 1   
   139  135  141 1   
   140  136  137 2   
   141  136  148 1   
   142  138  139 1   
   143  138  142 1   
   144  138  143 1   
   145  139  140 1   
   146  139  144 1   
   147  139  145 1   
   148  140  146 1   
   149  140  147 1   
   150  148  149 1   
   151  148  157 1   
   152  149  150 1   
   153  149  152 1   
   154  149  158 1   
   155  150  151 2   
   156  150  163 1   
   157  152  153 1   
   158  152  159 1   
   159  152  160 1   
   160  153  154 1   
   161  153  161 1   
   162  153  162 1   
   163  154  155 1   
   164  154  156 1   
   165  163  164 1   
   166  163  168 1   
   167  164  165 1   
   168  164  166 1   
   169  164  167 1   
   170  170  171 1   
   171  170  172 1   
   172  173  174 1   
   173  173  175 1   
@<TRIPOS>SUBSTRUCTURE
     1 MOL         1 TEMP              0 ****  ****    0 ROOT
