@<TRIPOS>MOLECULE
MOL
  172   171     1     0     0
SMALL
resp


@<TRIPOS>ATOM
      1 C1          0.1240   -3.7810    5.6570 c3        1 MOL     -0.426816
      2 C2          0.5070   -3.5470    4.1970 c         1 MOL      0.746150
      3 O1         -0.0800   -4.0810    3.2710 o         1 MOL     -0.587121
      4 H1         -0.4220   -2.9150    6.0310 hc        1 MOL      0.105630
      5 H2         -0.5080   -4.6670    5.7300 hc        1 MOL      0.105630
      6 H3          1.0260   -3.9260    6.2510 hc        1 MOL      0.105630
      7 N1          1.5450   -2.7180    3.9230 n         1 MOL     -0.597585
      8 C3          2.0900   -2.4640    2.5800 c3        1 MOL      0.168097
      9 C4          2.5680   -3.7370    1.8600 c         1 MOL      0.550494
     10 O2          3.4370   -4.4810    2.3070 o         1 MOL     -0.586291
     11 C5          3.2450   -1.4670    2.7150 c3        1 MOL     -0.460484
     12 C6          3.9650   -0.9110    1.5210 c         1 MOL      0.859611
     13 O3          3.4860   -1.1470    0.3890 o         1 MOL     -0.713540
     14 O4          4.9890   -0.2050    1.7080 o         1 MOL     -0.713540
     15 H4          2.0650   -2.2920    4.6810 hn        1 MOL      0.296790
     16 H5          1.3360   -1.8710    2.0760 h1        1 MOL      0.071630
     17 H6          4.0400   -1.8680    3.3520 hc        1 MOL      0.108289
     18 H7          2.7040   -0.6920    3.2700 hc        1 MOL      0.108289
     19 N2          2.0170   -3.9200    0.6260 n         1 MOL     -0.336771
     20 C7          2.1880   -5.1210   -0.2090 c3        1 MOL      0.032492
     21 C8          3.4450   -4.8920   -1.1020 c         1 MOL      0.568645
     22 O5          3.9770   -5.8920   -1.6020 o         1 MOL     -0.582608
     23 C9          0.9650   -5.1970   -1.1110 c3        1 MOL     -0.275121
     24 H8          1.4660   -3.1530    0.2750 hn        1 MOL      0.334931
     25 H9          2.4360   -5.9780    0.4070 h1        1 MOL      0.076118
     26 H10         1.1200   -5.9890   -1.8440 hc        1 MOL      0.079337
     27 H11         0.0320   -5.3800   -0.5710 hc        1 MOL      0.079337
     28 H12         0.7600   -4.2560   -1.6350 hc        1 MOL      0.079337
     29 N3          4.0860   -3.6670   -1.2000 n         1 MOL     -0.263353
     30 C10         5.1660   -3.3790   -2.0680 c3        1 MOL     -0.046054
     31 C11         6.4370   -3.1010   -1.3160 c         1 MOL      0.524814
     32 O6          7.4780   -3.3310   -1.8950 o         1 MOL     -0.533001
     33 C12         4.7600   -2.1500   -2.9120 c3        1 MOL      0.104136
     34 C13         3.3120   -2.2110   -3.4240 c         1 MOL      0.663702
     35 O7          3.1440   -2.8750   -4.5180 o         1 MOL     -0.700048
     36 O8          2.4310   -1.4490   -2.9660 o         1 MOL     -0.700048
     37 H13         3.7510   -2.8980   -0.6460 hn        1 MOL     -0.055002
     38 H14         5.3350   -4.2210   -2.7290 h1        1 MOL      0.105107
     39 H15         5.4570   -2.1690   -3.7400 hc        1 MOL     -0.040154
     40 H16         4.9690   -1.1800   -2.4580 hc        1 MOL     -0.040154
     41 N4          6.4270   -2.6370    0.0130 n         1 MOL     -0.357653
     42 C14         7.4760   -1.9920    0.6800 c3        1 MOL     -0.296177
     43 C15         7.7630   -0.6230    0.1540 c         1 MOL      0.577928
     44 O9          8.8420   -0.1040    0.4730 o         1 MOL     -0.616572
     45 H17         5.5080   -2.3860    0.3580 hn        1 MOL      0.310453
     46 H18         8.3730   -2.5920    0.5130 h1        1 MOL      0.148549
     47 H19         7.1390   -1.8610    1.7060 h1        1 MOL      0.148549
     48 N5          6.9030    0.0370   -0.6130 n         1 MOL     -0.143622
     49 C16         7.2170    1.3750   -1.2090 c3        1 MOL     -0.059056
     50 C17         6.8360    2.5300   -0.3050 c         1 MOL      0.445336
     51 O10         7.2240    3.6360   -0.6150 o         1 MOL     -0.572431
     52 C18         6.4400    1.4310   -2.5210 c3        1 MOL     -0.256785
     53 C19         5.0420    1.9850   -2.3270 c         1 MOL      0.637101
     54 N6          4.6860    3.0630   -3.0390 n         1 MOL     -0.736906
     55 O11         4.2220    1.4500   -1.6210 o         1 MOL     -0.550080
     56 H20         5.9410   -0.2490   -0.6830 hn        1 MOL      0.047047
     57 H21         8.2900    1.3830   -1.3590 h1        1 MOL      0.130331
     58 H22         6.3640    0.4270   -2.9410 hc        1 MOL      0.097734
     59 H23         6.9920    2.0500   -3.2320 hc        1 MOL      0.097734
     60 H24         5.3550    3.5580   -3.6160 hn        1 MOL      0.348440
     61 H25         3.7490    3.3910   -2.8330 hn        1 MOL      0.348440
     62 N7          6.1910    2.3370    0.8030 n         1 MOL     -0.049180
     63 C20         6.0550    3.2710    1.8890 c3        1 MOL     -0.284044
     64 C21         4.9390    4.2700    1.9280 c         1 MOL      0.538732
     65 O12         4.8850    5.2510    2.6920 o         1 MOL     -0.572739
     66 H26         5.8000    1.4180    0.9220 hn        1 MOL      0.209115
     67 H27         7.0230    3.7590    2.0510 h1        1 MOL      0.121725
     68 H28         5.8850    2.9000    2.8990 h1        1 MOL      0.121725
     69 N8          3.9700    3.9620    1.0600 n         1 MOL     -0.164947
     70 C22         2.6410    4.4830    0.9540 c3        1 MOL     -0.091755
     71 C23         1.5230    3.3750    0.8120 c         1 MOL      0.667691
     72 O13         1.8370    2.2370    0.4970 o         1 MOL     -0.615969
     73 C24         2.3640    5.4400   -0.1570 c3        1 MOL      0.259590
     74 C25         3.1980    6.7550   -0.0290 c3        1 MOL     -0.391928
     75 O14         2.5960    4.8220   -1.4020 oh        1 MOL     -0.618878
     76 H29         4.2700    3.2310    0.4360 hn        1 MOL      0.152765
     77 H30         2.4100    4.9840    1.8850 h1        1 MOL      0.070730
     78 H31         1.3070    5.6940   -0.1920 h1        1 MOL      0.038166
     79 H32         2.9060    5.4030   -2.1060 ho        1 MOL      0.415187
     80 H33         2.8800    7.4440   -0.8130 hc        1 MOL      0.106932
     81 H34         3.0650    7.2620    0.9250 hc        1 MOL      0.106932
     82 H35         4.2660    6.5990   -0.1380 hc        1 MOL      0.106932
     83 N9          0.3320    3.7730    1.2330 n         1 MOL     -0.494559
     84 C26        -0.8260    2.9030    1.3550 c3        1 MOL      0.101112
     85 C27        -1.7290    3.2000    0.1480 c         1 MOL      0.512381
     86 O15        -2.1910    4.3020   -0.1100 o         1 MOL     -0.567467
     87 C28        -1.5500    3.0270    2.7040 c3        1 MOL      0.132352
     88 C29        -0.7230    2.3030    3.7080 c3        1 MOL      0.000736
     89 C30        -3.0440    2.6550    2.7490 c3        1 MOL     -0.179656
     90 C31        -1.2340    2.3450    5.1420 c3        1 MOL     -0.158444
     91 H36         0.2310    4.7470    1.4660 hn        1 MOL      0.260008
     92 H37        -0.5410    1.8620    1.1760 h1        1 MOL     -0.026730
     93 H38        -1.5270    4.1040    2.9060 hc        1 MOL     -0.007082
     94 H39         0.2790    2.7090    3.6290 hc        1 MOL      0.019138
     95 H40        -0.7230    1.2440    3.4760 hc        1 MOL      0.019138
     96 H41        -3.4310    2.9870    3.7200 hc        1 MOL      0.030563
     97 H42        -3.3610    3.3360    1.9700 hc        1 MOL      0.030563
     98 H43        -3.2340    1.5980    2.5490 hc        1 MOL      0.030563
     99 H44        -1.5080    3.3200    5.5340 hc        1 MOL      0.034891
    100 H45        -2.0870    1.6910    5.2720 hc        1 MOL      0.034891
    101 H46        -0.4580    1.9710    5.8050 hc        1 MOL      0.034891
    102 N10        -2.1230    2.1080   -0.5450 n         1 MOL     -0.324750
    103 C32        -3.1760    2.0620   -1.6130 c3        1 MOL      0.001333
    104 C33        -4.4640    1.5070   -1.0820 c         1 MOL      0.646725
    105 O16        -4.5850    1.0490    0.0680 o         1 MOL     -0.434869
    106 C34        -2.7150    1.1030   -2.7160 c3        1 MOL     -0.184697
    107 C35        -1.2230    1.1220   -3.0370 c         1 MOL      0.732039
    108 O17        -0.4780    0.2900   -2.4590 o         1 MOL     -0.681028
    109 O18        -0.8420    2.0060   -3.8640 o         1 MOL     -0.681028
    110 H47        -1.7690    1.2600   -0.1240 hn        1 MOL      0.204529
    111 H48        -3.1990    3.0750   -2.0130 h1        1 MOL      0.089510
    112 H49        -3.2350    1.3160   -3.6440 hc        1 MOL      0.048801
    113 H50        -3.1530    0.1170   -2.5680 hc        1 MOL      0.048801
    114 N11        -5.6080    1.5920   -1.8090 n         1 MOL     -0.880660
    115 C36        -6.8580    1.1870   -1.1560 c3        1 MOL      0.643798
    116 C37        -6.9670   -0.2980   -0.7270 c         1 MOL      0.184693
    117 O19        -7.4270   -0.5410    0.3670 o         1 MOL     -0.467896
    118 C38        -8.0150    1.6250   -2.0350 c3        1 MOL     -0.401605
    119 C39        -9.3850    1.4000   -1.4290 ca        1 MOL      0.121485
    120 C40        -9.7230    1.8650   -0.2140 ca        1 MOL     -0.094666
    121 C41       -10.3290    0.7040   -2.1820 ca        1 MOL     -0.094666
    122 C42       -11.0540    1.6850    0.3120 ca        1 MOL     -0.221480
    123 C43       -11.6400    0.5340   -1.7160 ca        1 MOL     -0.221480
    124 C44       -11.9920    0.9760   -0.4060 ca        1 MOL      0.001812
    125 H51        -5.7030    2.0800   -2.6970 hn        1 MOL      0.383729
    126 H52        -6.9120    1.7510   -0.2280 h1        1 MOL      0.010676
    127 H53        -7.9280    1.2070   -3.0330 hc        1 MOL      0.096831
    128 H54        -7.9190    2.6660   -2.3220 hc        1 MOL      0.096831
    129 H55        -8.9400    2.3510    0.3470 ha        1 MOL      0.095050
    130 H56       -10.0780    0.1630   -3.0830 ha        1 MOL      0.095050
    131 H57       -11.2640    2.0200    1.3170 ha        1 MOL      0.134861
    132 H58       -12.2960   -0.0850   -2.3050 ha        1 MOL      0.134861
    133 H59       -12.9960    0.7960   -0.0450 ha        1 MOL      0.079147
    134 N12        -6.5340   -1.3400   -1.4940 n         1 MOL      0.036359
    135 C45        -6.4100   -2.7270   -1.0150 c3        1 MOL     -0.019962
    136 C46        -5.4770   -2.8860    0.2580 c         1 MOL      0.243789
    137 O20        -5.7120   -3.8190    1.0580 o         1 MOL     -0.524569
    138 C47        -5.9550   -3.4830   -2.2460 c3        1 MOL     -0.057178
    139 C48        -6.3530   -2.7140   -3.4420 c3        1 MOL      0.006904
    140 C49        -6.2750   -1.2710   -2.8710 c3        1 MOL     -0.046922
    141 H60        -7.3990   -3.1060   -0.7430 h1        1 MOL      0.087241
    142 H61        -4.8770   -3.6350   -2.2940 hc        1 MOL      0.057210
    143 H62        -6.4020   -4.4730   -2.3280 hc        1 MOL      0.057210
    144 H63        -5.6960   -2.9520   -4.2770 hc        1 MOL      0.009502
    145 H64        -7.4040   -2.8850   -3.6800 hc        1 MOL      0.009502
    146 H65        -5.2530   -0.9100   -2.9660 h1        1 MOL      0.031940
    147 H66        -6.9180   -0.6240   -3.4640 h1        1 MOL      0.031940
    148 N13        -4.6840   -1.9500    0.6860 n         1 MOL      0.002748
    149 C50        -3.8560   -2.0120    1.8940 c3        1 MOL     -0.010137
    150 C51        -4.5130   -1.1890    3.0530 c         1 MOL      0.463738
    151 O21        -4.3730   -1.6370    4.1700 o         1 MOL     -0.565026
    152 C52        -2.4930   -1.4150    1.5380 c3        1 MOL     -0.118783
    153 C53        -1.6810   -2.2920    0.5280 c3        1 MOL      0.213854
    154 C54        -0.3930   -1.6320    0.0890 c         1 MOL      0.468892
    155 O22        -0.1180   -0.4820    0.5440 o         1 MOL     -0.678059
    156 O23         0.4390   -2.0720   -0.7550 o         1 MOL     -0.678059
    157 H67        -4.7120   -1.0520    0.2370 hn        1 MOL      0.007556
    158 H68        -3.7960   -3.0150    2.3090 h1        1 MOL      0.098735
    159 H69        -1.8680   -1.3140    2.4320 hc        1 MOL      0.064960
    160 H70        -2.7010   -0.4040    1.1990 hc        1 MOL      0.064960
    161 H71        -2.3040   -2.6090   -0.3140 hc        1 MOL     -0.029154
    162 H72        -1.4450   -3.1980    1.0870 hc        1 MOL     -0.029154
    163 N14        -5.2150   -0.1060    2.7770 n         1 MOL     -0.050444
    164 C55        -6.0770    0.5830    3.6970 c3        1 MOL     -0.194384
    165 H73        -5.5210    1.3850    4.1840 h1        1 MOL      0.076143
    166 H74        -6.9240    1.0050    3.1570 h1        1 MOL      0.076143
    167 H75        -6.4380   -0.1160    4.4510 h1        1 MOL      0.076143
    168 H76        -5.0890    0.2160    1.8220 hn        1 MOL      0.104679
    169 Ca1         1.7360    0.0510   -1.0550 Ca        1 MOL      1.736645
    170 O24         1.5060    2.3990   -2.5170 oh        1 MOL     -0.852486
    171 H77         1.8370    3.2550   -2.2490 ho        1 MOL      0.383425
    172 H78         0.5960    2.5690   -2.7850 ho        1 MOL      0.383425
@<TRIPOS>BOND
     1    1    2 1   
     2    1    4 1   
     3    1    5 1   
     4    1    6 1   
     5    2    3 2   
     6    2    7 1   
     7    7    8 1   
     8    7   15 1   
     9    8    9 1   
    10    8   11 1   
    11    8   16 1   
    12    9   10 2   
    13    9   19 1   
    14   11   12 1   
    15   11   17 1   
    16   11   18 1   
    17   12   13 1   
    18   12   14 1   
    19   19   20 1   
    20   19   24 1   
    21   20   21 1   
    22   20   23 1   
    23   20   25 1   
    24   21   22 2   
    25   21   29 1   
    26   23   26 1   
    27   23   27 1   
    28   23   28 1   
    29   29   30 1   
    30   29   37 1   
    31   30   31 1   
    32   30   33 1   
    33   30   38 1   
    34   31   32 2   
    35   31   41 1   
    36   33   34 1   
    37   33   39 1   
    38   33   40 1   
    39   34   35 1   
    40   34   36 1   
    41   41   42 1   
    42   41   45 1   
    43   42   43 1   
    44   42   46 1   
    45   42   47 1   
    46   43   44 2   
    47   43   48 1   
    48   48   49 1   
    49   48   56 1   
    50   49   50 1   
    51   49   52 1   
    52   49   57 1   
    53   50   51 2   
    54   50   62 1   
    55   52   53 1   
    56   52   58 1   
    57   52   59 1   
    58   53   54 1   
    59   53   55 2   
    60   54   60 1   
    61   54   61 1   
    62   62   63 1   
    63   62   66 1   
    64   63   64 1   
    65   63   67 1   
    66   63   68 1   
    67   64   65 2   
    68   64   69 1   
    69   69   70 1   
    70   69   76 1   
    71   70   71 1   
    72   70   73 1   
    73   70   77 1   
    74   71   72 2   
    75   71   83 1   
    76   73   74 1   
    77   73   75 1   
    78   73   78 1   
    79   74   80 1   
    80   74   81 1   
    81   74   82 1   
    82   75   79 1   
    83   83   84 1   
    84   83   91 1   
    85   84   85 1   
    86   84   87 1   
    87   84   92 1   
    88   85   86 2   
    89   85  102 1   
    90   87   88 1   
    91   87   89 1   
    92   87   93 1   
    93   88   90 1   
    94   88   94 1   
    95   88   95 1   
    96   89   96 1   
    97   89   97 1   
    98   89   98 1   
    99   90   99 1   
   100   90  100 1   
   101   90  101 1   
   102  102  103 1   
   103  102  110 1   
   104  103  104 1   
   105  103  106 1   
   106  103  111 1   
   107  104  105 2   
   108  104  114 1   
   109  106  107 1   
   110  106  112 1   
   111  106  113 1   
   112  107  108 1   
   113  107  109 1   
   114  114  115 1   
   115  114  125 1   
   116  115  116 1   
   117  115  118 1   
   118  115  126 1   
   119  116  117 2   
   120  116  134 1   
   121  118  119 1   
   122  118  127 1   
   123  118  128 1   
   124  119  120 ar  
   125  119  121 ar  
   126  120  122 ar  
   127  120  129 1   
   128  121  123 ar  
   129  121  130 1   
   130  122  124 ar  
   131  122  131 1   
   132  123  124 ar  
   133  123  132 1   
   134  124  133 1   
   135  134  135 1   
   136  134  140 1   
   137  135  136 1   
   138  135  138 1   
   139  135  141 1   
   140  136  137 2   
   141  136  148 1   
   142  138  139 1   
   143  138  142 1   
   144  138  143 1   
   145  139  140 1   
   146  139  144 1   
   147  139  145 1   
   148  140  146 1   
   149  140  147 1   
   150  148  149 1   
   151  148  157 1   
   152  149  150 1   
   153  149  152 1   
   154  149  158 1   
   155  150  151 2   
   156  150  163 1   
   157  152  153 1   
   158  152  159 1   
   159  152  160 1   
   160  153  154 1   
   161  153  161 1   
   162  153  162 1   
   163  154  155 1   
   164  154  156 1   
   165  163  164 1   
   166  163  168 1   
   167  164  165 1   
   168  164  166 1   
   169  164  167 1   
   170  170  171 1   
   171  170  172 1   
@<TRIPOS>SUBSTRUCTURE
     1 MOL         1 TEMP              0 ****  ****    0 ROOT
