@<TRIPOS>MOLECULE
MOL
  175   173     1     0     0
SMALL
resp


@<TRIPOS>ATOM
      1 C1         -0.0970    3.5740    5.3450 c3        1 MOL     -0.427732
      2 C2         -0.5840    3.2320    3.9420 c         1 MOL      0.705269
      3 O1         -0.0320    3.7130    2.9480 o         1 MOL     -0.556497
      4 H1          0.9920    3.5350    5.3700 hc        1 MOL      0.105512
      5 H2         -0.4310    4.5770    5.6110 hc        1 MOL      0.105512
      6 H3         -0.5020    2.8550    6.0560 hc        1 MOL      0.105512
      7 N1         -1.6840    2.4750    3.9380 n         1 MOL     -0.605508
      8 C3         -2.4130    2.0850    2.6810 c3        1 MOL      0.391675
      9 C4         -2.9570    3.3920    2.0610 c         1 MOL      0.257924
     10 O2         -4.1830    3.6340    2.2260 o         1 MOL     -0.517672
     11 C5         -3.4830    1.0310    3.0460 c3        1 MOL     -0.224169
     12 C6         -4.2450    0.4380    1.8280 c         1 MOL      0.734870
     13 O3         -3.5700    0.3750    0.7610 o         1 MOL     -0.689764
     14 O4         -5.3920    0.0340    1.9080 o         1 MOL     -0.689764
     15 H4         -1.8770    1.9050    4.7480 hn        1 MOL      0.301949
     16 H5         -1.7220    1.6360    1.9670 h1        1 MOL     -0.066251
     17 H6         -4.2380    1.4850    3.6740 hc        1 MOL      0.039264
     18 H7         -3.0060    0.1970    3.5780 hc        1 MOL      0.039264
     19 N2         -2.2000    4.1590    1.3340 n         1 MOL     -0.023844
     20 C7         -2.4330    5.4610    0.8410 c3        1 MOL     -0.075913
     21 C8         -3.4470    5.3950   -0.3130 c         1 MOL      0.535638
     22 O5         -3.9290    6.4290   -0.7460 o         1 MOL     -0.589580
     23 C9         -1.0760    6.1650    0.5280 c3        1 MOL     -0.126583
     24 H8         -1.2090    3.9630    1.2730 hn        1 MOL      0.194559
     25 H9         -2.9340    5.9630    1.6630 h1        1 MOL      0.070296
     26 H10        -0.4620    6.3250    1.4110 hc        1 MOL      0.053308
     27 H11        -0.4570    5.6910   -0.2240 hc        1 MOL      0.053308
     28 H12        -1.2340    7.1520    0.0780 hc        1 MOL      0.053308
     29 N3         -3.8940    4.2100   -0.7700 n         1 MOL     -0.284562
     30 C10        -4.9470    4.0490   -1.7530 c3        1 MOL      0.011941
     31 C11        -6.1350    3.1240   -1.4070 c         1 MOL      0.381747
     32 O6         -7.0110    2.7880   -2.2040 o         1 MOL     -0.519962
     33 C12        -4.2190    3.7360   -3.0690 c3        1 MOL     -0.027968
     34 C13        -3.3470    2.5000   -3.0870 c         1 MOL      0.725628
     35 O7         -2.5350    2.4070   -4.0460 o         1 MOL     -0.697257
     36 O8         -3.3100    1.6240   -2.1350 o         1 MOL     -0.697257
     37 H13        -3.3900    3.3880   -0.4460 hn        1 MOL      0.123007
     38 H14        -5.3590    5.0460   -1.9330 h1        1 MOL      0.097980
     39 H15        -3.6080    4.5820   -3.4000 hc        1 MOL      0.003478
     40 H16        -4.9910    3.6950   -3.8360 hc        1 MOL      0.003478
     41 N4         -6.1960    2.6020   -0.1480 n         1 MOL     -0.153508
     42 C14        -7.3560    1.8350    0.3960 c3        1 MOL     -0.368559
     43 C15        -7.6140    0.4650   -0.0680 c         1 MOL      0.660604
     44 O9         -8.6850   -0.0710    0.1230 o         1 MOL     -0.633175
     45 H17        -5.3950    2.7550    0.4330 hn        1 MOL      0.151556
     46 H18        -8.2960    2.3440    0.2060 h1        1 MOL      0.151772
     47 H19        -7.1970    1.7260    1.4650 h1        1 MOL      0.151772
     48 N5         -6.6770   -0.1160   -0.8480 n         1 MOL     -0.187783
     49 C16        -6.8120   -1.3800   -1.5310 c3        1 MOL     -0.089650
     50 C17        -6.7640   -2.6430   -0.6090 c         1 MOL      0.442078
     51 O10        -7.0320   -3.7120   -1.1670 o         1 MOL     -0.559859
     52 C18        -5.9830   -1.4660   -2.8390 c3        1 MOL     -0.226025
     53 C19        -4.6190   -1.9300   -2.4500 c         1 MOL      0.666504
     54 N6         -4.1660   -2.7280   -3.3540 n         1 MOL     -0.693190
     55 O11        -4.0590   -1.7030   -1.4400 o         1 MOL     -0.522629
     56 H20        -5.7470    0.2630   -0.7680 hn        1 MOL      0.129408
     57 H21        -7.8580   -1.2860   -1.8220 h1        1 MOL      0.101774
     58 H22        -6.1040   -0.5280   -3.3890 hc        1 MOL      0.086530
     59 H23        -6.4810   -2.2330   -3.4380 hc        1 MOL      0.086530
     60 H24        -4.5360   -2.8750   -4.2860 hn        1 MOL      0.330466
     61 H25        -3.1620   -2.8450   -3.2750 hn        1 MOL      0.330466
     62 N7         -6.3560   -2.4830    0.6660 n         1 MOL     -0.180131
     63 C20        -6.2020   -3.4600    1.7400 c3        1 MOL     -0.213589
     64 C21        -4.8460   -4.1910    1.9260 c         1 MOL      0.574331
     65 O12        -4.7010   -5.0100    2.8360 o         1 MOL     -0.583289
     66 H26        -6.1930   -1.5220    0.9030 hn        1 MOL      0.247742
     67 H27        -6.9690   -4.2280    1.6480 h1        1 MOL      0.104366
     68 H28        -6.4490   -2.9450    2.6760 h1        1 MOL      0.104366
     69 N8         -3.8640   -3.8480    1.0440 n         1 MOL     -0.244397
     70 C22        -2.5330   -4.5020    1.1160 c3        1 MOL     -0.215114
     71 C23        -1.4020   -3.3860    1.1340 c         1 MOL      0.740352
     72 O13        -1.5360   -2.2940    0.5300 o         1 MOL     -0.647904
     73 C24        -2.3500   -5.3620   -0.1710 c3        1 MOL      0.424380
     74 C25        -3.1770   -6.6340   -0.1730 c3        1 MOL     -0.369931
     75 O14        -2.6230   -4.6300   -1.3310 oh        1 MOL     -0.566968
     76 H29        -4.0270   -3.1390    0.3470 hn        1 MOL      0.206158
     77 H30        -2.4480   -5.1390    1.9960 h1        1 MOL      0.115925
     78 H31        -1.2990   -5.6420   -0.1220 h1        1 MOL     -0.046770
     79 H32        -2.9600   -5.1500   -2.0680 ho        1 MOL      0.372356
     80 H33        -3.0840   -7.1710   -1.1180 hc        1 MOL      0.091875
     81 H34        -2.8960   -7.3640    0.5790 hc        1 MOL      0.091875
     82 H35        -4.2010   -6.3490    0.0380 hc        1 MOL      0.091875
     83 N9         -0.2260   -3.6720    1.7320 n         1 MOL     -0.651491
     84 C26         0.9710   -2.8060    1.7080 c3        1 MOL     -0.095962
     85 C27         1.6270   -2.9590    0.2420 c         1 MOL      0.655898
     86 O15         2.1930   -3.9960   -0.1450 o         1 MOL     -0.609968
     87 C28         1.9780   -3.2400    2.8330 c3        1 MOL      0.168926
     88 C29         1.2570   -3.3930    4.1420 c3        1 MOL      0.058510
     89 C30         2.9800   -2.0960    2.9600 c3        1 MOL     -0.190606
     90 C31         2.2230   -3.9030    5.2710 c3        1 MOL     -0.391963
     91 H36        -0.1130   -4.6140    2.0880 hn        1 MOL      0.330101
     92 H37         0.6600   -1.7770    1.9040 h1        1 MOL      0.164596
     93 H38         2.5120   -4.1400    2.5250 hc        1 MOL     -0.007317
     94 H39         0.4610   -4.1190    3.9960 hc        1 MOL      0.017273
     95 H40         0.8540   -2.4510    4.5280 hc        1 MOL      0.017273
     96 H41         3.7070   -2.3220    3.7400 hc        1 MOL      0.028128
     97 H42         3.4850   -1.8790    2.0120 hc        1 MOL      0.028128
     98 H43         2.4570   -1.1790    3.2300 hc        1 MOL      0.028128
     99 H44         2.7550   -4.7680    4.8660 hc        1 MOL      0.095641
    100 H45         2.9410   -3.1360    5.5510 hc        1 MOL      0.095641
    101 H46         1.6230   -4.0620    6.1690 hc        1 MOL      0.095641
    102 N10         1.8740   -1.8540   -0.5120 n         1 MOL     -0.320869
    103 C32         2.8760   -1.6430   -1.5230 c3        1 MOL     -0.002615
    104 C33         4.2870   -1.3070   -1.0280 c         1 MOL      0.600531
    105 O16         4.3480   -0.8020    0.0660 o         1 MOL     -0.304073
    106 C34         2.4490   -0.6930   -2.6760 c3        1 MOL     -0.463827
    107 C35         1.0380   -0.9210   -3.1360 c         1 MOL      0.824844
    108 O17         0.1450   -0.0700   -2.8620 o         1 MOL     -0.690939
    109 O18         0.8020   -1.9730   -3.7540 o         1 MOL     -0.690939
    110 H47         1.4780   -0.9850   -0.1760 hn        1 MOL      0.231106
    111 H48         3.0410   -2.6250   -1.9740 h1        1 MOL      0.087101
    112 H49         3.0720   -0.8850   -3.5490 hc        1 MOL      0.117498
    113 H50         2.6610    0.3300   -2.3960 hc        1 MOL      0.117498
    114 N11         5.3680   -1.5100   -1.7710 n         1 MOL     -0.742427
    115 C36         6.7190   -1.1450   -1.2450 c3        1 MOL      0.306619
    116 C37         6.8560    0.3070   -0.7280 c         1 MOL      0.322411
    117 O19         7.4120    0.4680    0.3400 o         1 MOL     -0.466870
    118 C38         7.7500   -1.5400   -2.3250 c3        1 MOL     -0.175300
    119 C39         9.2020   -1.4430   -1.8050 ca        1 MOL      0.079909
    120 C40         9.5490   -1.8670   -0.5050 ca        1 MOL     -0.165218
    121 C41        10.2100   -0.7710   -2.5790 ca        1 MOL     -0.165218
    122 C42        10.8590   -1.7520   -0.0400 ca        1 MOL     -0.141179
    123 C43        11.5050   -0.5380   -2.0630 ca        1 MOL     -0.141179
    124 C44        11.8190   -1.0590   -0.7680 ca        1 MOL     -0.070908
    125 H51         5.3220   -1.8170   -2.7330 hn        1 MOL      0.345948
    126 H52         6.7910   -1.8420   -0.4110 h1        1 MOL      0.087784
    127 H53         7.6900   -0.9420   -3.2420 hc        1 MOL      0.063069
    128 H54         7.6370   -2.5750   -2.6580 hc        1 MOL      0.063069
    129 H55         8.8290   -2.3120    0.1670 ha        1 MOL      0.120431
    130 H56         9.9380   -0.1850   -3.4440 ha        1 MOL      0.120431
    131 H57        11.0720   -1.9010    1.0050 ha        1 MOL      0.118545
    132 H58        12.2730   -0.0340   -2.6380 ha        1 MOL      0.118545
    133 H59        12.7950   -0.9300   -0.3170 ha        1 MOL      0.089091
    134 N12         6.3840    1.3730   -1.3970 n         1 MOL      0.033450
    135 C45         6.4580    2.6850   -0.8490 c3        1 MOL      0.145194
    136 C46         5.5720    2.9110    0.3370 c         1 MOL      0.263768
    137 O20         5.7900    3.9130    1.0070 o         1 MOL     -0.501734
    138 C47         6.1450    3.6320   -1.9800 c3        1 MOL     -0.066494
    139 C48         6.5690    2.8640   -3.2400 c3        1 MOL     -0.173102
    140 C49         6.1970    1.4620   -2.8380 c3        1 MOL     -0.194335
    141 H60         7.4800    2.9140   -0.5530 h1        1 MOL      0.030044
    142 H61         5.0730    3.8330   -2.0700 hc        1 MOL      0.060592
    143 H62         6.5830    4.6130   -1.8540 hc        1 MOL      0.060592
    144 H63         5.9460    3.0830   -4.1050 hc        1 MOL      0.071859
    145 H64         7.6360    2.9940   -3.4150 hc        1 MOL      0.071859
    146 H65         5.1930    1.3350   -3.2240 h1        1 MOL      0.099967
    147 H66         6.9700    0.9080   -3.3800 h1        1 MOL      0.099967
    148 N13         4.5960    2.0110    0.6650 n         1 MOL     -0.127847
    149 C50         3.9430    2.0540    2.0070 c3        1 MOL      0.005592
    150 C51         4.7310    1.3150    3.0910 c         1 MOL      0.417886
    151 O21         4.7560    1.6420    4.3020 o         1 MOL     -0.563180
    152 C52         2.5380    1.4550    1.8070 c3        1 MOL      0.135816
    153 C53         1.8220    1.8160    0.4570 c3        1 MOL     -0.141892
    154 C54         0.4390    1.2610    0.1380 c         1 MOL      0.667101
    155 O22         0.1650    0.0920    0.4810 o         1 MOL     -0.705984
    156 O23        -0.3600    1.9250   -0.5360 o         1 MOL     -0.705984
    157 H67         4.6160    1.1210    0.2000 hn        1 MOL      0.033027
    158 H68         3.8580    3.1070    2.2590 h1        1 MOL      0.086301
    159 H69         1.9410    1.9790    2.5530 hc        1 MOL     -0.038347
    160 H70         2.6020    0.3720    1.9210 hc        1 MOL     -0.038347
    161 H71         2.5030    1.5180   -0.3450 hc        1 MOL      0.038638
    162 H72         1.8120    2.9120    0.4930 hc        1 MOL      0.038638
    163 N14         5.4900    0.2450    2.6810 n         1 MOL      0.095308
    164 C55         6.4020   -0.4910    3.5350 c3        1 MOL     -0.321794
    165 H73         7.2710    0.1280    3.7560 h1        1 MOL      0.105971
    166 H74         5.8980   -0.7550    4.4640 h1        1 MOL      0.105971
    167 H75         6.7250   -1.3990    3.0250 h1        1 MOL      0.105971
    168 H76         5.4830    0.1510    1.6740 hn        1 MOL     -0.058424
    169 Ca1        -1.8790   -0.2260   -0.9970 Ca        1 MOL      1.700768
    170 O24        -2.1690   -0.2880   -4.2460 oh        1 MOL     -0.880337
    171 H77        -2.3960    0.6360   -4.1450 ho        1 MOL      0.396920
    172 H78        -1.2700   -0.3550   -3.9110 ho        1 MOL      0.396920
    173 O25        -1.3740   -2.3500   -2.3010 oh        1 MOL     -0.880337
    174 H79        -1.5040   -3.2310   -1.9440 ho        1 MOL      0.396920
    175 H80        -0.6460   -2.4420   -2.9100 ho        1 MOL      0.396920
@<TRIPOS>BOND
     1    1    2 1   
     2    1    4 1   
     3    1    5 1   
     4    1    6 1   
     5    2    3 2   
     6    2    7 1   
     7    7    8 1   
     8    7   15 1   
     9    8    9 1   
    10    8   11 1   
    11    8   16 1   
    12    9   10 2   
    13    9   19 1   
    14   11   12 1   
    15   11   17 1   
    16   11   18 1   
    17   12   13 1   
    18   12   14 1   
    19   19   20 1   
    20   19   24 1   
    21   20   21 1   
    22   20   23 1   
    23   20   25 1   
    24   21   22 2   
    25   21   29 1   
    26   23   26 1   
    27   23   27 1   
    28   23   28 1   
    29   29   30 1   
    30   29   37 1   
    31   30   31 1   
    32   30   33 1   
    33   30   38 1   
    34   31   32 2   
    35   31   41 1   
    36   33   34 1   
    37   33   39 1   
    38   33   40 1   
    39   34   35 1   
    40   34   36 1   
    41   41   42 1   
    42   41   45 1   
    43   42   43 1   
    44   42   46 1   
    45   42   47 1   
    46   43   44 2   
    47   43   48 1   
    48   48   49 1   
    49   48   56 1   
    50   49   50 1   
    51   49   52 1   
    52   49   57 1   
    53   50   51 2   
    54   50   62 1   
    55   52   53 1   
    56   52   58 1   
    57   52   59 1   
    58   53   54 1   
    59   53   55 2   
    60   54   60 1   
    61   54   61 1   
    62   62   63 1   
    63   62   66 1   
    64   63   64 1   
    65   63   67 1   
    66   63   68 1   
    67   64   65 2   
    68   64   69 1   
    69   69   70 1   
    70   69   76 1   
    71   70   71 1   
    72   70   73 1   
    73   70   77 1   
    74   71   72 2   
    75   71   83 1   
    76   73   74 1   
    77   73   75 1   
    78   73   78 1   
    79   74   80 1   
    80   74   81 1   
    81   74   82 1   
    82   75   79 1   
    83   83   84 1   
    84   83   91 1   
    85   84   85 1   
    86   84   87 1   
    87   84   92 1   
    88   85   86 2   
    89   85  102 1   
    90   87   88 1   
    91   87   89 1   
    92   87   93 1   
    93   88   90 1   
    94   88   94 1   
    95   88   95 1   
    96   89   96 1   
    97   89   97 1   
    98   89   98 1   
    99   90   99 1   
   100   90  100 1   
   101   90  101 1   
   102  102  103 1   
   103  102  110 1   
   104  103  104 1   
   105  103  106 1   
   106  103  111 1   
   107  104  105 2   
   108  104  114 1   
   109  106  107 1   
   110  106  112 1   
   111  106  113 1   
   112  107  108 1   
   113  107  109 1   
   114  114  115 1   
   115  114  125 1   
   116  115  116 1   
   117  115  118 1   
   118  115  126 1   
   119  116  117 2   
   120  116  134 1   
   121  118  119 1   
   122  118  127 1   
   123  118  128 1   
   124  119  120 ar  
   125  119  121 ar  
   126  120  122 ar  
   127  120  129 1   
   128  121  123 ar  
   129  121  130 1   
   130  122  124 ar  
   131  122  131 1   
   132  123  124 ar  
   133  123  132 1   
   134  124  133 1   
   135  134  135 1   
   136  134  140 1   
   137  135  136 1   
   138  135  138 1   
   139  135  141 1   
   140  136  137 2   
   141  136  148 1   
   142  138  139 1   
   143  138  142 1   
   144  138  143 1   
   145  139  140 1   
   146  139  144 1   
   147  139  145 1   
   148  140  146 1   
   149  140  147 1   
   150  148  149 1   
   151  148  157 1   
   152  149  150 1   
   153  149  152 1   
   154  149  158 1   
   155  150  151 2   
   156  150  163 1   
   157  152  153 1   
   158  152  159 1   
   159  152  160 1   
   160  153  154 1   
   161  153  161 1   
   162  153  162 1   
   163  154  155 1   
   164  154  156 1   
   165  163  164 1   
   166  163  168 1   
   167  164  165 1   
   168  164  166 1   
   169  164  167 1   
   170  170  171 1   
   171  170  172 1   
   172  173  174 1   
   173  173  175 1   
@<TRIPOS>SUBSTRUCTURE
     1 MOL         1 TEMP              0 ****  ****    0 ROOT
