@<TRIPOS>MOLECULE
MOL
  179   176     1     0     0
SMALL
resp


@<TRIPOS>ATOM
      1 C1          0.8260    4.0340    6.7060 c3        1 MOL     -0.381772
      2 C2          0.9020    3.6980    5.2190 c         1 MOL      0.722165
      3 O1          1.9780    3.2980    4.8310 o         1 MOL     -0.586610
      4 H1         -0.1920    4.3310    6.9590 hc        1 MOL      0.097445
      5 H2          1.1040    3.1580    7.2910 hc        1 MOL      0.097445
      6 H3          1.5100    4.8530    6.9290 hc        1 MOL      0.097445
      7 N1         -0.1320    3.7480    4.4350 n         1 MOL     -0.559379
      8 C3         -0.2250    3.3540    2.9860 c3        1 MOL     -0.163967
      9 C4         -0.1340    4.5520    2.0140 c         1 MOL      0.722070
     10 O2         -0.8250    5.5900    2.0810 o         1 MOL     -0.550816
     11 C5         -1.4250    2.4540    2.7850 c3        1 MOL      0.090329
     12 C6         -1.5950    1.7040    1.4720 c         1 MOL      0.604664
     13 O3         -0.8310    2.0000    0.5440 o         1 MOL     -0.727448
     14 O4         -2.4350    0.8690    1.3200 o         1 MOL     -0.727448
     15 H4         -1.0020    4.0110    4.8720 hn        1 MOL      0.312720
     16 H5          0.6300    2.6810    2.9420 h1        1 MOL      0.128671
     17 H6         -2.3390    3.0420    2.8910 hc        1 MOL      0.001190
     18 H7         -1.4120    1.7940    3.6530 hc        1 MOL      0.001190
     19 N2          0.8040    4.4710    1.0120 n         1 MOL     -0.502073
     20 C7          0.9100    5.3660   -0.0740 c3        1 MOL     -0.078230
     21 C8         -0.3360    5.5990   -0.9480 c         1 MOL      0.553912
     22 O5         -0.3610    6.5880   -1.6500 o         1 MOL     -0.578630
     23 C9          2.1490    4.7970   -0.8510 c3        1 MOL      0.346320
     24 C10         2.8570    5.7000   -1.8160 c3        1 MOL     -0.442354
     25 C11         3.9820    4.9830   -2.6390 c3        1 MOL      0.220641
     26 C12         4.7610    5.9780   -3.4520 c3        1 MOL      0.021730
     27 N3          5.9850    5.4080   -4.0330 n4        1 MOL     -0.403182
     28 H8          1.2850    3.5860    0.9190 hn        1 MOL      0.254863
     29 H9          1.2730    6.3060    0.3310 h1        1 MOL      0.096129
     30 H10         1.8160    3.9210   -1.4140 hc        1 MOL     -0.028385
     31 H11         2.9380    4.4760   -0.1770 hc        1 MOL     -0.028385
     32 H12         3.2610    6.5590   -1.2790 hc        1 MOL      0.103626
     33 H13         2.1410    6.0500   -2.5710 hc        1 MOL      0.103626
     34 H14         3.6660    4.1690   -3.2820 hc        1 MOL     -0.001955
     35 H15         4.7240    4.5140   -1.9800 hc        1 MOL     -0.001955
     36 H16         4.9990    6.9050   -2.9260 hx        1 MOL      0.083109
     37 H17         4.1270    6.2120   -4.3030 hx        1 MOL      0.083109
     38 H18         5.8200    4.7370   -4.7670 hn        1 MOL      0.337028
     39 H19         6.6530    6.1280   -4.2620 hn        1 MOL      0.337028
     40 H20         6.4780    4.9430   -3.2900 hn        1 MOL      0.337028
     41 N4         -1.3290    4.6860   -0.9850 n         1 MOL     -0.331959
     42 C13        -2.6440    5.0690   -1.6370 c3        1 MOL      0.106446
     43 C14        -3.8950    4.8590   -0.7390 c         1 MOL      0.391609
     44 O6         -4.9220    5.5740   -0.9310 o         1 MOL     -0.525901
     45 C15        -2.7980    4.3590   -3.0250 c3        1 MOL     -0.381631
     46 C16        -2.6700    2.8660   -3.0440 c         1 MOL      0.896466
     47 O7         -2.4060    2.2150   -2.0180 o         1 MOL     -0.723317
     48 O8         -2.7920    2.3360   -4.1570 o         1 MOL     -0.723317
     49 H21        -1.2160    3.8530   -0.4220 hn        1 MOL      0.234088
     50 H22        -2.6490    6.1580   -1.7280 h1        1 MOL      0.104150
     51 H23        -2.0440    4.7090   -3.7230 hc        1 MOL      0.102078
     52 H24        -3.7470    4.7310   -3.4290 hc        1 MOL      0.102078
     53 N5         -3.7710    3.9080    0.1910 n         1 MOL      0.005807
     54 C17        -4.7920    3.4590    1.1670 c3        1 MOL     -0.268567
     55 C18        -5.7870    2.4940    0.6030 c         1 MOL      0.618304
     56 O9         -6.9060    2.5170    1.0540 o         1 MOL     -0.565074
     57 H25        -2.8890    3.4380    0.2670 hn        1 MOL     -0.068730
     58 H26        -5.3640    4.2950    1.5680 h1        1 MOL      0.131593
     59 H27        -4.3780    2.9240    2.0260 h1        1 MOL      0.131593
     60 N6         -5.3860    1.6900   -0.4070 n         1 MOL     -0.237527
     61 C19        -6.3070    0.7810   -1.0710 c3        1 MOL      0.004507
     62 C20        -6.9500   -0.4140   -0.2850 c         1 MOL      0.394047
     63 O10        -7.9440   -0.9830   -0.7850 o         1 MOL     -0.518052
     64 C21        -5.5520    0.0730   -2.2440 c3        1 MOL     -0.232714
     65 C22        -4.8100   -1.1800   -1.8900 c         1 MOL      0.562539
     66 N7         -5.1540   -2.3450   -2.3560 n         1 MOL     -0.635914
     67 O11        -3.8380   -1.1710   -1.1400 o         1 MOL     -0.556187
     68 H28        -4.5120    1.9080   -0.8800 hn        1 MOL      0.142107
     69 H29        -7.1660    1.3230   -1.4660 h1        1 MOL      0.106626
     70 H30        -4.9100    0.7770   -2.7710 hc        1 MOL      0.093833
     71 H31        -6.2280   -0.1820   -3.0690 hc        1 MOL      0.093833
     72 H32        -5.8300   -2.5140   -3.0930 hn        1 MOL      0.325040
     73 H33        -4.5240   -3.1020   -2.1160 hn        1 MOL      0.325040
     74 N8         -6.3760   -0.8450    0.8490 n         1 MOL     -0.224559
     75 C23        -6.7960   -2.0570    1.6150 c3        1 MOL      0.029109
     76 C24        -5.6410   -2.8890    2.1880 c         1 MOL      0.449592
     77 O12        -5.8030   -3.5320    3.2240 o         1 MOL     -0.530109
     78 H34        -5.7760   -0.1850    1.3360 hn        1 MOL      0.213238
     79 H35        -7.3010   -2.7310    0.9240 h1        1 MOL      0.061073
     80 H36        -7.5510   -1.8880    2.3890 h1        1 MOL      0.061073
     81 N9         -4.4320   -2.7800    1.5560 n         1 MOL     -0.241668
     82 C25        -3.2770   -3.5520    1.9780 c3        1 MOL      0.046354
     83 C26        -1.9070   -2.8580    1.7480 c         1 MOL      0.424888
     84 O13        -1.7050   -2.0570    0.7880 o         1 MOL     -0.467165
     85 C27        -3.3440   -4.9940    1.3830 c3        1 MOL     -0.147523
     86 C28        -3.5450   -5.0740   -0.1340 ca        1 MOL      0.109892
     87 C29        -2.4570   -5.0670   -1.0170 ca        1 MOL     -0.162553
     88 C30        -4.8470   -5.3060   -0.5710 ca        1 MOL     -0.162553
     89 C31        -2.6520   -5.1770   -2.3910 ca        1 MOL     -0.294008
     90 C32        -5.0470   -5.4220   -2.0110 ca        1 MOL     -0.294008
     91 C33        -3.9590   -5.4030   -2.9190 ca        1 MOL      0.359560
     92 O14        -4.1640   -5.4460   -4.2540 oh        1 MOL     -0.501741
     93 H37        -4.3330   -2.2490    0.6960 hn        1 MOL      0.127602
     94 H38        -3.3530   -3.6550    3.0580 h1        1 MOL      0.075708
     95 H39        -4.1700   -5.4740    1.9020 hc        1 MOL      0.063332
     96 H40        -2.4850   -5.5930    1.6950 hc        1 MOL      0.063332
     97 H41        -1.4940   -5.0830   -0.5370 ha        1 MOL      0.157568
     98 H42        -5.6340   -5.4350    0.1630 ha        1 MOL      0.157568
     99 H43        -1.8220   -5.3230   -3.0610 ha        1 MOL      0.146312
    100 H44        -6.0390   -5.5570   -2.4220 ha        1 MOL      0.146312
    101 H45        -5.0910   -5.5610   -4.4830 ho        1 MOL      0.382422
    102 N10        -0.8950   -3.1240    2.5860 n         1 MOL     -0.388971
    103 C34         0.4860   -2.7540    2.3430 c3        1 MOL      0.093345
    104 C35         1.2020   -3.6530    1.3930 c         1 MOL      0.418442
    105 O15         1.1660   -4.8560    1.6800 o         1 MOL     -0.547120
    106 C36         1.2900   -2.6520    3.7200 c3        1 MOL      0.066904
    107 C37         0.5120   -1.8660    4.8450 c3        1 MOL     -0.082916
    108 C38         2.6260   -1.9600    3.5450 c3        1 MOL     -0.173141
    109 C39        -0.1020   -0.4590    4.6560 c3        1 MOL     -0.127279
    110 H46        -1.1390   -3.8520    3.2290 hn        1 MOL      0.273620
    111 H47         0.4340   -1.7170    2.0090 h1        1 MOL      0.089026
    112 H48         1.4830   -3.6900    3.9970 hc        1 MOL      0.021905
    113 H49         1.0630   -2.0080    5.7720 hc        1 MOL      0.012153
    114 H50        -0.3870   -2.4800    4.9640 hc        1 MOL      0.012153
    115 H51         2.5080   -1.1320    2.8460 hc        1 MOL      0.055833
    116 H52         3.2330   -1.7710    4.4350 hc        1 MOL      0.055833
    117 H53         3.2970   -2.6450    3.0120 hc        1 MOL      0.055833
    118 H54        -0.6620   -0.1850    5.5560 hc        1 MOL      0.055462
    119 H55         0.6890    0.2910    4.5960 hc        1 MOL      0.055462
    120 H56        -0.8110   -0.3950    3.8350 hc        1 MOL      0.055462
    121 N11         1.8530   -3.0920    0.3500 n         1 MOL     -0.130651
    122 C40         2.8210   -3.8880   -0.4600 c3        1 MOL      0.060786
    123 C41         4.2410   -3.7220    0.1310 c         1 MOL      0.562934
    124 O16         4.4910   -2.8080    0.9100 o         1 MOL     -0.483804
    125 C42         2.6890   -3.4780   -1.9710 c3        1 MOL      0.111890
    126 O17         1.3990   -3.8350   -2.4600 oh        1 MOL     -0.556256
    127 H57         1.7520   -2.1080    0.1720 hn        1 MOL      0.037405
    128 H58         2.6070   -4.9460   -0.3670 h1        1 MOL      0.048941
    129 H59         3.5290   -3.7840   -2.5930 h1        1 MOL      0.028062
    130 H60         2.6140   -2.3950   -2.0560 h1        1 MOL      0.028062
    131 H61         1.5550   -4.0220   -3.3900 ho        1 MOL      0.401440
    132 N12         5.2700   -4.3910   -0.4240 n         1 MOL     -0.579326
    133 C43         6.6400   -4.3580    0.0820 c3        1 MOL      0.286336
    134 C44         7.3250   -3.0330   -0.2040 c         1 MOL      0.379150
    135 O18         7.7800   -2.3490    0.7120 o         1 MOL     -0.527233
    136 C45         7.3750   -5.6080   -0.5430 c3        1 MOL     -0.307254
    137 H62         5.1760   -5.0990   -1.1450 hn        1 MOL      0.298082
    138 H63         6.7300   -4.5820    1.1490 h1        1 MOL      0.061924
    139 H64         7.7180   -5.4430   -1.5660 hc        1 MOL      0.088161
    140 H65         8.3560   -5.7380   -0.0870 hc        1 MOL      0.088161
    141 H66         6.7420   -6.4890   -0.5000 hc        1 MOL      0.088161
    142 N13         7.4690   -2.4730   -1.4120 n         1 MOL     -0.262058
    143 C46         8.0680   -1.1470   -1.5780 c3        1 MOL      0.082214
    144 C47         7.1980   -0.0150   -1.2040 c         1 MOL      0.395476
    145 O19         7.7030    1.0710   -1.0140 o         1 MOL     -0.537282
    146 C48         8.5110   -1.1600   -3.0570 c3        1 MOL     -0.296571
    147 H67         7.2010   -2.9700   -2.2490 hn        1 MOL      0.200138
    148 H68         8.9850   -1.1910   -0.9860 h1        1 MOL      0.130998
    149 H69         7.5980   -1.3360   -3.6220 hc        1 MOL      0.083937
    150 H70         8.7770   -0.1330   -3.2910 hc        1 MOL      0.083937
    151 H71         9.2580   -1.9170   -3.2580 hc        1 MOL      0.083937
    152 N14         5.9150   -0.1930   -0.8790 n         1 MOL     -0.114459
    153 C49         5.0450    0.7730   -0.2390 c3        1 MOL     -0.097231
    154 C50         5.3220    0.9540    1.1920 c         1 MOL      0.524785
    155 O20         5.1590    2.0130    1.7010 o         1 MOL     -0.538196
    156 C51         3.5710    0.4330   -0.3800 c3        1 MOL     -0.312499
    157 C52         2.9910    0.4240   -1.8340 c3        1 MOL      0.100403
    158 C53         1.5190    0.0920   -1.7200 c         1 MOL      0.759680
    159 O21         0.9850   -0.6650   -0.8590 o         1 MOL     -0.738649
    160 O22         0.7150    0.5730   -2.5210 o         1 MOL     -0.738649
    161 H72         5.5060   -1.1030   -0.9940 hn        1 MOL      0.070902
    162 H73         5.2420    1.7030   -0.7770 h1        1 MOL      0.064587
    163 H74         3.0790    1.2120    0.1960 hc        1 MOL      0.120079
    164 H75         3.4950   -0.5340    0.1310 hc        1 MOL      0.120079
    165 H76         3.4790   -0.3110   -2.4750 hc        1 MOL     -0.024763
    166 H77         3.2030    1.3830   -2.3270 hc        1 MOL     -0.024763
    167 N15         5.7470   -0.0320    1.9920 n         1 MOL     -0.144554
    168 C54         6.1460    0.1000    3.4210 c3        1 MOL     -0.250211
    169 H78         5.3400    0.5750    3.9800 h1        1 MOL      0.111102
    170 H79         6.3430   -0.8890    3.8360 h1        1 MOL      0.111102
    171 H80         7.0470    0.7100    3.4920 h1        1 MOL      0.111102
    172 H81         5.8040   -0.9740    1.6500 hn        1 MOL      0.161606
    173 Ca1        -1.4620   -0.0810   -1.0530 Ca        1 MOL      1.781298
    174 O23        -2.5150   -0.1640   -3.4370 oh        1 MOL     -0.864537
    175 H82        -3.0090   -0.6660   -4.0850 ho        1 MOL      0.395446
    176 H83        -2.5480    0.7410   -3.7560 ho        1 MOL      0.395446
    177 O24        -1.0560   -2.4860   -2.1310 oh        1 MOL     -0.864537
    178 H84        -0.1840   -2.8820   -2.0980 ho        1 MOL      0.395446
    179 H85        -1.6490   -3.2360   -2.2540 ho        1 MOL      0.395446
@<TRIPOS>BOND
     1    1    2 1   
     2    1    4 1   
     3    1    5 1   
     4    1    6 1   
     5    2    3 2   
     6    2    7 1   
     7    7    8 1   
     8    7   15 1   
     9    8    9 1   
    10    8   11 1   
    11    8   16 1   
    12    9   10 2   
    13    9   19 1   
    14   11   12 1   
    15   11   17 1   
    16   11   18 1   
    17   12   13 1   
    18   12   14 1   
    19   19   20 1   
    20   19   28 1   
    21   20   21 1   
    22   20   23 1   
    23   20   29 1   
    24   21   22 2   
    25   21   41 1   
    26   23   24 1   
    27   23   30 1   
    28   23   31 1   
    29   24   25 1   
    30   24   32 1   
    31   24   33 1   
    32   25   26 1   
    33   25   34 1   
    34   25   35 1   
    35   26   27 1   
    36   26   36 1   
    37   26   37 1   
    38   27   38 1   
    39   27   39 1   
    40   27   40 1   
    41   41   42 1   
    42   41   49 1   
    43   42   43 1   
    44   42   45 1   
    45   42   50 1   
    46   43   44 2   
    47   43   53 1   
    48   45   46 1   
    49   45   51 1   
    50   45   52 1   
    51   46   47 1   
    52   46   48 1   
    53   53   54 1   
    54   53   57 1   
    55   54   55 1   
    56   54   58 1   
    57   54   59 1   
    58   55   56 2   
    59   55   60 1   
    60   60   61 1   
    61   60   68 1   
    62   61   62 1   
    63   61   64 1   
    64   61   69 1   
    65   62   63 2   
    66   62   74 1   
    67   64   65 1   
    68   64   70 1   
    69   64   71 1   
    70   65   66 1   
    71   65   67 2   
    72   66   72 1   
    73   66   73 1   
    74   74   75 1   
    75   74   78 1   
    76   75   76 1   
    77   75   79 1   
    78   75   80 1   
    79   76   77 2   
    80   76   81 1   
    81   81   82 1   
    82   81   93 1   
    83   82   83 1   
    84   82   85 1   
    85   82   94 1   
    86   83   84 2   
    87   83  102 1   
    88   85   86 1   
    89   85   95 1   
    90   85   96 1   
    91   86   87 ar  
    92   86   88 ar  
    93   87   89 ar  
    94   87   97 1   
    95   88   90 ar  
    96   88   98 1   
    97   89   91 ar  
    98   89   99 1   
    99   90   91 ar  
   100   90  100 1   
   101   91   92 1   
   102   92  101 1   
   103  102  103 1   
   104  102  110 1   
   105  103  104 1   
   106  103  106 1   
   107  103  111 1   
   108  104  105 2   
   109  104  121 1   
   110  106  107 1   
   111  106  108 1   
   112  106  112 1   
   113  107  109 1   
   114  107  113 1   
   115  107  114 1   
   116  108  115 1   
   117  108  116 1   
   118  108  117 1   
   119  109  118 1   
   120  109  119 1   
   121  109  120 1   
   122  121  122 1   
   123  121  127 1   
   124  122  123 1   
   125  122  125 1   
   126  122  128 1   
   127  123  124 2   
   128  123  132 1   
   129  125  126 1   
   130  125  129 1   
   131  125  130 1   
   132  126  131 1   
   133  132  133 1   
   134  132  137 1   
   135  133  134 1   
   136  133  136 1   
   137  133  138 1   
   138  134  135 2   
   139  134  142 1   
   140  136  139 1   
   141  136  140 1   
   142  136  141 1   
   143  142  143 1   
   144  142  147 1   
   145  143  144 1   
   146  143  146 1   
   147  143  148 1   
   148  144  145 2   
   149  144  152 1   
   150  146  149 1   
   151  146  150 1   
   152  146  151 1   
   153  152  153 1   
   154  152  161 1   
   155  153  154 1   
   156  153  156 1   
   157  153  162 1   
   158  154  155 2   
   159  154  167 1   
   160  156  157 1   
   161  156  163 1   
   162  156  164 1   
   163  157  158 1   
   164  157  165 1   
   165  157  166 1   
   166  158  159 1   
   167  158  160 1   
   168  167  168 1   
   169  167  172 1   
   170  168  169 1   
   171  168  170 1   
   172  168  171 1   
   173  174  175 1   
   174  174  176 1   
   175  177  178 1   
   176  177  179 1   
@<TRIPOS>SUBSTRUCTURE
     1 MOL         1 TEMP              0 ****  ****    0 ROOT
