@<TRIPOS>MOLECULE
MOL
  175   173     1     0     0
SMALL
resp


@<TRIPOS>ATOM
      1 C1          0.0610   -3.7250    5.5090 c3        1 MOL     -0.350005
      2 C2          0.6010   -3.6300    4.0740 c         1 MOL      0.768543
      3 O1         -0.1630   -3.6540    3.1120 o         1 MOL     -0.551819
      4 H1         -1.0170   -3.5590    5.5020 hc        1 MOL      0.082707
      5 H2          0.2730   -4.7150    5.9120 hc        1 MOL      0.082707
      6 H3          0.5400   -2.9680    6.1290 hc        1 MOL      0.082707
      7 N1          1.9700   -3.5940    3.9530 n         1 MOL     -0.803158
      8 C3          2.5810   -3.3590    2.6730 c3        1 MOL      0.539113
      9 C4          2.5710   -4.6160    1.7370 c         1 MOL      0.364701
     10 O2          2.7610   -5.7600    2.1900 o         1 MOL     -0.566015
     11 C5          3.9920   -2.7140    2.9140 c3        1 MOL     -0.289930
     12 C6          4.7080   -2.3830    1.5980 c         1 MOL      0.667554
     13 O3          5.6850   -3.0610    1.2720 o         1 MOL     -0.633452
     14 O4          4.0920   -1.6810    0.7720 o         1 MOL     -0.633452
     15 H4          2.5730   -3.8050    4.7370 hn        1 MOL      0.354097
     16 H5          2.0230   -2.5870    2.1390 h1        1 MOL     -0.056292
     17 H6          4.6220   -3.3230    3.5620 hc        1 MOL      0.023102
     18 H7          3.6530   -1.7560    3.2990 hc        1 MOL      0.023102
     19 N2          2.3910   -4.3640    0.4570 n         1 MOL     -0.157268
     20 C7          2.6820   -5.3080   -0.5970 c3        1 MOL      0.193404
     21 C8          3.8410   -4.9830   -1.5420 c         1 MOL      0.496182
     22 O5          4.2160   -5.8370   -2.3920 o         1 MOL     -0.597700
     23 C9          1.3160   -5.3370   -1.3920 c3        1 MOL     -0.390127
     24 H8          1.9890   -3.5010    0.1430 hn        1 MOL      0.133555
     25 H9          3.0200   -6.2530   -0.1630 h1        1 MOL      0.016800
     26 H10         0.4930   -5.5150   -0.7000 hc        1 MOL      0.101099
     27 H11         1.2080   -4.4160   -1.9520 hc        1 MOL      0.101099
     28 H12         1.3210   -6.1420   -2.1240 hc        1 MOL      0.101099
     29 N3          4.3700   -3.7550   -1.5200 n         1 MOL     -0.278713
     30 C10         5.1040   -3.2630   -2.6880 c3        1 MOL      0.065183
     31 C11         6.2790   -2.3260   -2.4280 c         1 MOL      0.337569
     32 O6          6.9320   -1.7930   -3.3030 o         1 MOL     -0.543661
     33 C12         4.2300   -2.5900   -3.7180 c3        1 MOL     -0.065924
     34 C13         3.3240   -1.4820   -3.1650 c         1 MOL      0.730287
     35 O7          3.5440   -0.9750   -2.0160 o         1 MOL     -0.702411
     36 O8          2.5000   -1.0020   -3.9500 o         1 MOL     -0.702411
     37 H13         4.1870   -3.0990   -0.7760 hn        1 MOL      0.100517
     38 H14         5.6010   -4.1170   -3.1310 h1        1 MOL      0.073304
     39 H15         3.5390   -3.3610   -4.0650 hc        1 MOL      0.011596
     40 H16         4.7990   -2.1980   -4.5600 hc        1 MOL      0.011596
     41 N4          6.5680   -1.9760   -1.1680 n         1 MOL     -0.032850
     42 C14         7.6650   -1.1660   -0.6320 c3        1 MOL     -0.316840
     43 C15         7.4160    0.3620   -0.7020 c         1 MOL      0.682760
     44 O9          8.2540    1.1660   -0.3330 o         1 MOL     -0.653782
     45 H17         6.0390   -2.4150   -0.4300 hn        1 MOL      0.114731
     46 H18         8.5540   -1.4530   -1.2050 h1        1 MOL      0.121496
     47 H19         7.7410   -1.4320    0.4210 h1        1 MOL      0.121496
     48 N5          6.3560    0.8670   -1.3540 n         1 MOL     -0.354706
     49 C16         6.2670    2.2210   -2.0190 c3        1 MOL      0.204124
     50 C17         6.1010    3.3810   -1.0470 c         1 MOL      0.333375
     51 O10         6.0270    4.5480   -1.4460 o         1 MOL     -0.527370
     52 C18         5.1140    2.0770   -3.0410 c3        1 MOL     -0.463020
     53 C19         3.6670    2.1360   -2.4170 c         1 MOL      0.884213
     54 N6          2.7250    1.9400   -3.2510 n         1 MOL     -0.821208
     55 O11         3.5120    2.1990   -1.2340 o         1 MOL     -0.741391
     56 H20         5.7540    0.1520   -1.7370 hn        1 MOL      0.125455
     57 H21         7.2480    2.3470   -2.4730 h1        1 MOL      0.072202
     58 H22         5.3550    1.2310   -3.6860 hc        1 MOL      0.125276
     59 H23         5.1350    2.8840   -3.7790 hc        1 MOL      0.125276
     60 H24         2.9730    1.5320   -4.1390 hn        1 MOL      0.396095
     61 H25         1.7770    1.9070   -2.9080 hn        1 MOL      0.396095
     62 N7          6.0310    3.1070    0.2800 n         1 MOL     -0.046641
     63 C20         6.0560    4.1390    1.3300 c3        1 MOL     -0.395707
     64 C21         4.6560    4.7410    1.6930 c         1 MOL      0.603984
     65 O12         4.5380    5.4790    2.6540 o         1 MOL     -0.585011
     66 H26         6.0590    2.1470    0.6030 hn        1 MOL      0.198619
     67 H27         6.6750    4.9710    0.9770 h1        1 MOL      0.148308
     68 H28         6.5040    3.6870    2.2200 h1        1 MOL      0.148308
     69 N8          3.5750    4.2890    1.0500 n         1 MOL     -0.352047
     70 C22         2.1690    4.6720    1.2100 c3        1 MOL     -0.130223
     71 C23         1.1930    3.5460    1.3370 c         1 MOL      0.642664
     72 O13         1.4990    2.3720    0.8740 o         1 MOL     -0.554757
     73 C24         1.6950    5.5890    0.0920 c3        1 MOL      0.428233
     74 C25         2.4210    6.9830    0.1930 c3        1 MOL     -0.504451
     75 O14         1.9540    4.9910   -1.1450 oh        1 MOL     -0.509737
     76 H29         3.7670    3.7210    0.2320 hn        1 MOL      0.315870
     77 H30         2.1090    5.3100    2.0930 h1        1 MOL      0.093298
     78 H31         0.6050    5.6550    0.0570 h1        1 MOL     -0.028390
     79 H32         1.7470    4.0780   -0.8970 ho        1 MOL      0.272653
     80 H33         2.2430    7.3800    1.1910 hc        1 MOL      0.133764
     81 H34         3.4790    6.8210   -0.0550 hc        1 MOL      0.133764
     82 H35         1.9940    7.6790   -0.5350 hc        1 MOL      0.133764
     83 N9          0.0390    3.7710    1.9740 n         1 MOL     -0.594598
     84 C26        -1.0930    2.9030    1.9150 c3        1 MOL      0.049297
     85 C27        -1.9280    3.1170    0.6360 c         1 MOL      0.775950
     86 O15        -2.3780    4.2290    0.3460 o         1 MOL     -0.619602
     87 C28        -1.9210    2.8820    3.2220 c3        1 MOL      0.078123
     88 C29        -1.2680    2.0080    4.3300 c3        1 MOL      0.146877
     89 C30        -3.4010    2.5250    3.1640 c3        1 MOL     -0.303161
     90 C31        -1.6360    2.1120    5.8470 c3        1 MOL     -0.280463
     91 H36        -0.1230    4.7410    2.1920 hn        1 MOL      0.274742
     92 H37        -0.5460    1.9490    1.9340 h1        1 MOL     -0.023751
     93 H38        -1.9230    3.9200    3.5660 hc        1 MOL      0.009751
     94 H39        -0.2030    2.2340    4.4110 hc        1 MOL      0.006732
     95 H40        -1.4130    0.9470    4.1430 hc        1 MOL      0.006732
     96 H41        -3.4650    1.4830    2.8720 hc        1 MOL      0.067308
     97 H42        -3.8130    2.5650    4.1720 hc        1 MOL      0.067308
     98 H43        -3.9440    3.2210    2.5100 hc        1 MOL      0.067308
     99 H44        -1.9460    3.1260    6.0850 hc        1 MOL      0.059119
    100 H45        -2.3850    1.3610    6.0860 hc        1 MOL      0.059119
    101 H46        -0.7030    1.8830    6.3500 hc        1 MOL      0.059119
    102 N10        -2.0020    2.0310   -0.0910 n         1 MOL     -0.482217
    103 C32        -2.8220    1.9060   -1.2830 c3        1 MOL      0.084412
    104 C33        -4.2080    1.3160   -0.9100 c         1 MOL      0.389874
    105 O16        -4.4180    0.7070    0.1360 o         1 MOL     -0.385548
    106 C34        -2.0290    0.9920   -2.3010 c3        1 MOL     -0.218064
    107 C35        -0.4780    1.1910   -2.3590 c         1 MOL      0.810861
    108 O17         0.3210    0.7440   -1.5530 o         1 MOL     -0.693597
    109 O18        -0.1560    1.8320   -3.3910 o         1 MOL     -0.693597
    110 H47        -1.6070    1.1780    0.2580 hn        1 MOL      0.248016
    111 H48        -3.0140    2.8220   -1.8240 h1        1 MOL      0.068069
    112 H49        -2.4060    0.9360   -3.3230 hc        1 MOL      0.046958
    113 H50        -2.1130    0.0010   -1.8410 hc        1 MOL      0.046958
    114 N11        -5.2250    1.4380   -1.8090 n         1 MOL     -0.569478
    115 C36        -6.5960    1.1780   -1.3630 c3        1 MOL      0.320778
    116 C37        -6.8410   -0.2660   -0.8960 c         1 MOL      0.293199
    117 O19        -7.4130   -0.4650    0.2420 o         1 MOL     -0.465185
    118 C38        -7.4850    1.7340   -2.5110 c3        1 MOL     -0.228339
    119 C39        -8.9320    1.6540   -2.2100 ca        1 MOL      0.056902
    120 C40        -9.5250    1.9140   -0.9400 ca        1 MOL     -0.100981
    121 C41        -9.8190    1.1620   -3.1630 ca        1 MOL     -0.100981
    122 C42       -10.9050    1.8000   -0.6750 ca        1 MOL     -0.173292
    123 C43       -11.2360    1.0400   -2.9180 ca        1 MOL     -0.173292
    124 C44       -11.7970    1.4080   -1.6770 ca        1 MOL     -0.060705
    125 H51        -5.0890    2.0170   -2.6160 hn        1 MOL      0.320303
    126 H52        -6.7760    1.8330   -0.5090 h1        1 MOL      0.086867
    127 H53        -7.1760    1.3460   -3.4800 hc        1 MOL      0.077135
    128 H54        -7.3160    2.8080   -2.5180 hc        1 MOL      0.077135
    129 H55        -8.8380    2.0360   -0.1190 ha        1 MOL      0.085053
    130 H56        -9.4970    0.8760   -4.1470 ha        1 MOL      0.085053
    131 H57       -11.2580    1.9240    0.3300 ha        1 MOL      0.124621
    132 H58       -11.7650    0.6570   -3.7790 ha        1 MOL      0.124621
    133 H59       -12.8710    1.4690   -1.5400 ha        1 MOL      0.094622
    134 N12        -6.5120   -1.3140   -1.6190 n         1 MOL     -0.045241
    135 C45        -6.6640   -2.6720   -1.1810 c3        1 MOL     -0.107719
    136 C46        -5.7560   -3.0070    0.0750 c         1 MOL      0.438845
    137 O20        -6.1080   -3.9200    0.7950 o         1 MOL     -0.542501
    138 C47        -6.3820   -3.5450   -2.3820 c3        1 MOL     -0.065896
    139 C48        -5.3700   -2.7110   -3.0790 c3        1 MOL     -0.003726
    140 C49        -6.0710   -1.3540   -3.0250 c3        1 MOL     -0.029283
    141 H60        -7.7330   -2.7190   -0.9320 h1        1 MOL      0.086357
    142 H61        -5.9340   -4.4960   -2.0870 hc        1 MOL      0.053451
    143 H62        -7.2180   -3.7370   -3.0580 hc        1 MOL      0.053451
    144 H63        -4.4060   -2.7540   -2.5610 hc        1 MOL      0.017250
    145 H64        -5.3270   -2.9570   -4.1340 hc        1 MOL      0.017250
    146 H65        -5.3330   -0.5670   -3.1690 h1        1 MOL      0.047551
    147 H66        -6.8930   -1.2160   -3.7220 h1        1 MOL      0.047551
    148 N13        -4.8090   -2.2000    0.4520 n         1 MOL     -0.118783
    149 C50        -3.9700   -2.2650    1.6240 c3        1 MOL     -0.189567
    150 C51        -4.6140   -1.5310    2.8030 c         1 MOL      0.503411
    151 O21        -4.5120   -1.9120    3.9480 o         1 MOL     -0.565238
    152 C52        -2.5870   -1.7040    1.4130 c3        1 MOL     -0.002182
    153 C53        -1.6580   -2.3670    0.4190 c3        1 MOL     -0.161935
    154 C54        -0.2680   -1.7620    0.3650 c         1 MOL      0.616869
    155 O22         0.0090   -0.8470    1.1380 o         1 MOL     -0.688044
    156 O23         0.5390   -2.0340   -0.5480 o         1 MOL     -0.688044
    157 H67        -4.5690   -1.4170   -0.1330 hn        1 MOL      0.234266
    158 H68        -3.9980   -3.3250    1.8680 h1        1 MOL      0.127938
    159 H69        -2.0430   -1.7150    2.3540 hc        1 MOL      0.038645
    160 H70        -2.7180   -0.6420    1.2420 hc        1 MOL      0.038645
    161 H71        -2.1310   -2.4230   -0.5540 hc        1 MOL      0.068899
    162 H72        -1.5800   -3.4070    0.7520 hc        1 MOL      0.068899
    163 N14        -5.5150   -0.5910    2.4860 n         1 MOL      0.069459
    164 C55        -6.4150    0.0160    3.4750 c3        1 MOL     -0.283991
    165 H73        -7.1440   -0.7250    3.8050 h1        1 MOL      0.093631
    166 H74        -5.8340    0.3590    4.3320 h1        1 MOL      0.093631
    167 H75        -6.9340    0.8610    3.0250 h1        1 MOL      0.093631
    168 H76        -5.7170   -0.3890    1.5240 hn        1 MOL     -0.057159
    169 Ca1         2.1950   -0.0100   -0.1500 Ca        1 MOL      1.712336
    170 O24         3.9980    1.1220    1.5250 oh        1 MOL     -0.813245
    171 H77         4.7910    1.0780    2.0590 ho        1 MOL      0.393696
    172 H78         3.2730    1.1170    2.1560 ho        1 MOL      0.393696
    173 O25         1.6260    0.2590    2.7770 oh        1 MOL     -0.813245
    174 H79         1.5480    0.1450    3.7210 ho        1 MOL      0.393696
    175 H80         0.8080   -0.0960    2.4200 ho        1 MOL      0.393696
@<TRIPOS>BOND
     1    1    2 1   
     2    1    4 1   
     3    1    5 1   
     4    1    6 1   
     5    2    3 2   
     6    2    7 1   
     7    7    8 1   
     8    7   15 1   
     9    8    9 1   
    10    8   11 1   
    11    8   16 1   
    12    9   10 2   
    13    9   19 1   
    14   11   12 1   
    15   11   17 1   
    16   11   18 1   
    17   12   13 1   
    18   12   14 1   
    19   19   20 1   
    20   19   24 1   
    21   20   21 1   
    22   20   23 1   
    23   20   25 1   
    24   21   22 2   
    25   21   29 1   
    26   23   26 1   
    27   23   27 1   
    28   23   28 1   
    29   29   30 1   
    30   29   37 1   
    31   30   31 1   
    32   30   33 1   
    33   30   38 1   
    34   31   32 2   
    35   31   41 1   
    36   33   34 1   
    37   33   39 1   
    38   33   40 1   
    39   34   35 1   
    40   34   36 1   
    41   41   42 1   
    42   41   45 1   
    43   42   43 1   
    44   42   46 1   
    45   42   47 1   
    46   43   44 2   
    47   43   48 1   
    48   48   49 1   
    49   48   56 1   
    50   49   50 1   
    51   49   52 1   
    52   49   57 1   
    53   50   51 2   
    54   50   62 1   
    55   52   53 1   
    56   52   58 1   
    57   52   59 1   
    58   53   54 1   
    59   53   55 2   
    60   54   60 1   
    61   54   61 1   
    62   62   63 1   
    63   62   66 1   
    64   63   64 1   
    65   63   67 1   
    66   63   68 1   
    67   64   65 2   
    68   64   69 1   
    69   69   70 1   
    70   69   76 1   
    71   70   71 1   
    72   70   73 1   
    73   70   77 1   
    74   71   72 2   
    75   71   83 1   
    76   73   74 1   
    77   73   75 1   
    78   73   78 1   
    79   74   80 1   
    80   74   81 1   
    81   74   82 1   
    82   75   79 1   
    83   83   84 1   
    84   83   91 1   
    85   84   85 1   
    86   84   87 1   
    87   84   92 1   
    88   85   86 2   
    89   85  102 1   
    90   87   88 1   
    91   87   89 1   
    92   87   93 1   
    93   88   90 1   
    94   88   94 1   
    95   88   95 1   
    96   89   96 1   
    97   89   97 1   
    98   89   98 1   
    99   90   99 1   
   100   90  100 1   
   101   90  101 1   
   102  102  103 1   
   103  102  110 1   
   104  103  104 1   
   105  103  106 1   
   106  103  111 1   
   107  104  105 2   
   108  104  114 1   
   109  106  107 1   
   110  106  112 1   
   111  106  113 1   
   112  107  108 1   
   113  107  109 1   
   114  114  115 1   
   115  114  125 1   
   116  115  116 1   
   117  115  118 1   
   118  115  126 1   
   119  116  117 2   
   120  116  134 1   
   121  118  119 1   
   122  118  127 1   
   123  118  128 1   
   124  119  120 ar  
   125  119  121 ar  
   126  120  122 ar  
   127  120  129 1   
   128  121  123 ar  
   129  121  130 1   
   130  122  124 ar  
   131  122  131 1   
   132  123  124 ar  
   133  123  132 1   
   134  124  133 1   
   135  134  135 1   
   136  134  140 1   
   137  135  136 1   
   138  135  138 1   
   139  135  141 1   
   140  136  137 2   
   141  136  148 1   
   142  138  139 1   
   143  138  142 1   
   144  138  143 1   
   145  139  140 1   
   146  139  144 1   
   147  139  145 1   
   148  140  146 1   
   149  140  147 1   
   150  148  149 1   
   151  148  157 1   
   152  149  150 1   
   153  149  152 1   
   154  149  158 1   
   155  150  151 2   
   156  150  163 1   
   157  152  153 1   
   158  152  159 1   
   159  152  160 1   
   160  153  154 1   
   161  153  161 1   
   162  153  162 1   
   163  154  155 1   
   164  154  156 1   
   165  163  164 1   
   166  163  168 1   
   167  164  165 1   
   168  164  166 1   
   169  164  167 1   
   170  170  171 1   
   171  170  172 1   
   172  173  174 1   
   173  173  175 1   
@<TRIPOS>SUBSTRUCTURE
     1 MOL         1 TEMP              0 ****  ****    0 ROOT
