@<TRIPOS>MOLECULE
MOL
  189   185     1     0     0
SMALL
resp


@<TRIPOS>ATOM
      1 C1         -0.1440    1.7360    6.2860 c3        1 MOL     -0.372148
      2 C2         -0.4290    1.6340    4.7860 c         1 MOL      0.665463
      3 O1          0.3900    2.0340    3.9790 o         1 MOL     -0.587856
      4 H1          0.6360    1.0250    6.5560 hc        1 MOL      0.097888
      5 H2          0.1870    2.7470    6.5260 hc        1 MOL      0.097888
      6 H3         -1.0520    1.5080    6.8460 hc        1 MOL      0.097888
      7 N1         -1.6180    1.0670    4.4220 n         1 MOL     -0.513105
      8 C3         -2.2540    0.9940    3.0400 c3        1 MOL      0.060556
      9 C4         -2.7820    2.3500    2.5540 c         1 MOL      0.468363
     10 O2         -3.7600    2.9190    3.0250 o         1 MOL     -0.517040
     11 C5         -3.4210   -0.0550    3.0440 c3        1 MOL     -0.050629
     12 C6         -4.1570   -0.1540    1.6610 c         1 MOL      0.665611
     13 O3         -3.5730    0.2030    0.5740 o         1 MOL     -0.660126
     14 O4         -5.3170   -0.6330    1.6160 o         1 MOL     -0.660126
     15 H4         -2.2020    0.7080    5.1580 hn        1 MOL      0.311647
     16 H5         -1.5020    0.5560    2.3800 h1        1 MOL     -0.048952
     17 H6         -4.0970    0.1840    3.8620 hc        1 MOL      0.019579
     18 H7         -3.0010   -1.0270    3.3110 hc        1 MOL      0.019579
     19 N2         -1.9560    3.0640    1.7660 n         1 MOL     -0.258658
     20 C7         -2.0320    4.5050    1.3890 c3        1 MOL      0.127169
     21 C8         -3.0830    4.7860    0.3430 c         1 MOL      0.323378
     22 O5         -3.7670    5.7940    0.4370 o         1 MOL     -0.589338
     23 C9         -0.6370    5.1700    1.0670 c3        1 MOL     -0.343122
     24 C10        -0.7690    6.6790    0.7560 c3        1 MOL     -0.057038
     25 C11         0.6080    7.2900    1.0150 c3        1 MOL     -0.026498
     26 C12         0.5960    8.8380    0.7740 c3        1 MOL     -0.113251
     27 N3          0.1830    9.2560   -0.5190 n4        1 MOL     -0.352319
     28 H8         -1.0710    2.6020    1.6020 hn        1 MOL      0.228502
     29 H9         -2.3780    5.0530    2.2640 h1        1 MOL      0.068001
     30 H10        -0.1970    4.6120    0.2480 hc        1 MOL      0.149938
     31 H11        -0.0600    5.0600    1.9820 hc        1 MOL      0.149938
     32 H12        -1.4080    7.2160    1.4630 hc        1 MOL      0.070299
     33 H13        -1.0820    6.9760   -0.2400 hc        1 MOL      0.070299
     34 H14         1.2830    6.8840    0.2640 hc        1 MOL      0.052947
     35 H15         0.8890    7.1000    2.0510 hc        1 MOL      0.052947
     36 H16         1.5940    9.2180    0.9730 hx        1 MOL      0.130779
     37 H17        -0.0900    9.2160    1.5260 hx        1 MOL      0.130779
     38 H18         0.1860   10.2700   -0.5540 hn        1 MOL      0.330695
     39 H19         0.8020    8.8600   -1.2110 hn        1 MOL      0.330695
     40 H20        -0.7340    8.9710   -0.8220 hn        1 MOL      0.330695
     41 N4         -3.4100    3.8880   -0.5990 n         1 MOL     -0.003685
     42 C13        -4.5120    4.1120   -1.5890 c3        1 MOL      0.001423
     43 C14        -5.8450    3.3180   -1.3620 c         1 MOL      0.420319
     44 O6         -6.9040    3.5510   -1.9690 o         1 MOL     -0.528253
     45 C15        -3.8300    3.8680   -2.9770 c3        1 MOL     -0.329852
     46 C16        -3.0440    2.5940   -3.1540 c         1 MOL      0.791782
     47 O7         -2.8790    1.7080   -2.2400 o         1 MOL     -0.685896
     48 O8         -2.4980    2.3860   -4.3000 o         1 MOL     -0.685896
     49 H21        -2.7090    3.1930   -0.7910 hn        1 MOL      0.096383
     50 H22        -4.8510    5.1470   -1.5110 h1        1 MOL      0.087831
     51 H23        -3.0860    4.6480   -3.1170 hc        1 MOL      0.073520
     52 H24        -4.6030    3.9490   -3.7530 hc        1 MOL      0.073520
     53 N5         -5.7400    2.4730   -0.3380 n         1 MOL     -0.118538
     54 C17        -6.8690    1.7570    0.2870 c3        1 MOL     -0.125110
     55 C18        -7.3410    0.6070   -0.5570 c         1 MOL      0.585808
     56 O9         -8.5230    0.3620   -0.6250 o         1 MOL     -0.584165
     57 H25        -4.8420    2.3040    0.0940 hn        1 MOL      0.108909
     58 H26        -7.6430    2.4930    0.5170 h1        1 MOL      0.084244
     59 H27        -6.4250    1.5040    1.2480 h1        1 MOL      0.084244
     60 N6         -6.5090   -0.1220   -1.2690 n         1 MOL     -0.295741
     61 C19        -6.7970   -1.2870   -2.1650 c3        1 MOL      0.132953
     62 C20        -6.9780   -2.5670   -1.3950 c         1 MOL      0.415739
     63 O10        -7.6300   -3.4870   -1.8550 o         1 MOL     -0.552956
     64 C21        -5.7540   -1.3550   -3.3020 c3        1 MOL     -0.295809
     65 C22        -4.3370   -1.4870   -2.8560 c         1 MOL      0.741870
     66 O11        -4.0760   -1.9760   -1.7470 o         1 MOL     -0.711557
     67 O12        -3.4270   -0.9880   -3.5700 o         1 MOL     -0.711557
     68 H28        -5.5380   -0.0100   -0.9980 hn        1 MOL      0.104638
     69 H29        -7.7400   -1.1310   -2.7080 h1        1 MOL      0.072433
     70 H30        -5.9080   -0.4410   -3.8790 hc        1 MOL      0.096295
     71 H31        -6.0750   -2.1960   -3.9080 hc        1 MOL      0.096295
     72 N7         -6.3550   -2.7020   -0.1990 n         1 MOL     -0.172891
     73 C23        -6.3860   -3.8550    0.7100 c3        1 MOL     -0.186109
     74 C24        -5.0400   -4.5870    0.9170 c         1 MOL      0.458964
     75 O13        -4.9790   -5.6030    1.6380 o         1 MOL     -0.569362
     76 H32        -5.7950   -1.9490    0.1720 hn        1 MOL      0.231136
     77 H33        -7.1200   -4.5670    0.3400 h1        1 MOL      0.113966
     78 H34        -6.7620   -3.5050    1.6760 h1        1 MOL      0.113966
     79 N8         -3.9830   -4.1560    0.2410 n         1 MOL     -0.100637
     80 C25        -2.6000   -4.6910    0.4370 c3        1 MOL     -0.091292
     81 C26        -1.4420   -3.6520    0.7000 c         1 MOL      0.595134
     82 O14        -1.6110   -2.4710    0.4710 o         1 MOL     -0.587618
     83 C27        -2.2340   -5.6390   -0.7360 c3        1 MOL      0.284696
     84 C28        -2.6920   -7.0630   -0.7890 c3        1 MOL     -0.278994
     85 O15        -2.7300   -5.1390   -1.9420 oh        1 MOL     -0.586359
     86 H35        -4.1010   -3.3250   -0.3310 hn        1 MOL      0.119958
     87 H36        -2.6460   -5.1800    1.4060 h1        1 MOL      0.083656
     88 H37        -1.1620   -5.7020   -0.8860 h1        1 MOL      0.077326
     89 H38        -3.6850   -5.1590   -1.9030 ho        1 MOL      0.384139
     90 H39        -3.6780   -7.1010   -0.3240 hc        1 MOL      0.066556
     91 H40        -2.5440   -7.5660   -1.7430 hc        1 MOL      0.066556
     92 H41        -2.0730   -7.6190   -0.0740 hc        1 MOL      0.066556
     93 N9         -0.3220   -4.1240    1.3220 n         1 MOL     -0.497712
     94 C29         0.9770   -3.4240    1.4960 c3        1 MOL      0.185239
     95 C30         2.0110   -3.7280    0.3860 c         1 MOL      0.321221
     96 O16         2.4730   -4.8610    0.3630 o         1 MOL     -0.514122
     97 C31         1.4680   -3.7480    2.8840 c3        1 MOL      0.034410
     98 C32         0.4800   -3.2580    3.9640 c3        1 MOL     -0.002119
     99 C33         2.8370   -3.1970    3.3420 c3        1 MOL     -0.165887
    100 C34         0.1440   -1.7750    4.0610 c3        1 MOL      0.108019
    101 H42        -0.2320   -5.1230    1.4270 hn        1 MOL      0.263979
    102 H43         0.7620   -2.3510    1.4820 h1        1 MOL      0.016507
    103 H44         1.4890   -4.8300    3.0160 hc        1 MOL      0.017312
    104 H45         0.7700   -3.6140    4.9480 hc        1 MOL     -0.010667
    105 H46        -0.4600   -3.8030    3.8120 hc        1 MOL     -0.010667
    106 H47         3.5650   -3.6080    2.6550 hc        1 MOL      0.034331
    107 H48         2.7500   -2.1080    3.4260 hc        1 MOL      0.034331
    108 H49         3.0450   -3.6140    4.3340 hc        1 MOL      0.034331
    109 H50        -0.0530   -1.3000    3.0980 hc        1 MOL     -0.020294
    110 H51        -0.7050   -1.6960    4.7430 hc        1 MOL     -0.020294
    111 H52         0.9940   -1.2650    4.4920 hc        1 MOL     -0.020294
    112 N10         2.2600   -2.7950   -0.5010 n         1 MOL     -0.167147
    113 C35         3.5000   -2.7820   -1.3570 c3        1 MOL     -0.073386
    114 C36         4.7510   -2.4450   -0.6000 c         1 MOL      0.336103
    115 O17         4.7070   -2.0060    0.5480 o         1 MOL     -0.221471
    116 C37         3.3920   -1.7530   -2.5100 c3        1 MOL      0.222290
    117 C38         2.1640   -2.1460   -3.3580 c3        1 MOL     -0.421568
    118 O18         3.1410   -0.4050   -2.1920 oh        1 MOL     -0.577156
    119 H53         1.7290   -1.9360   -0.4890 hn        1 MOL      0.211140
    120 H54         3.7000   -3.7750   -1.7450 h1        1 MOL      0.109226
    121 H55         4.2900   -1.7380   -3.1320 h1        1 MOL      0.028123
    122 H56         2.2740   -0.3310   -1.7870 ho        1 MOL      0.383552
    123 H57         1.2690   -2.1480   -2.7330 hc        1 MOL      0.119439
    124 H58         2.0020   -1.4660   -4.1950 hc        1 MOL      0.119439
    125 H59         2.3500   -3.1540   -3.7330 hc        1 MOL      0.119439
    126 N11         6.0210   -2.6470   -1.1220 n         1 MOL     -0.350591
    127 C39         7.3170   -2.2780   -0.5150 c3        1 MOL     -0.109331
    128 C40         7.3630   -0.8420    0.0980 c         1 MOL      0.350275
    129 O19         7.9040   -0.6540    1.1480 o         1 MOL     -0.468736
    130 C41         8.4320   -2.3150   -1.5700 c3        1 MOL      0.333048
    131 C42         8.7980   -3.7520   -1.7770 c3        1 MOL     -0.442137
    132 O20         7.9220   -1.7890   -2.8330 oh        1 MOL     -0.634183
    133 H60         6.0400   -3.2170   -1.9540 hn        1 MOL      0.266985
    134 H61         7.6010   -2.9340    0.3150 h1        1 MOL      0.144272
    135 H62         9.3020   -1.7510   -1.2420 h1        1 MOL      0.052181
    136 H63         8.5880   -1.3010   -3.3300 ho        1 MOL      0.360223
    137 H64         9.6790   -3.7920   -2.4050 hc        1 MOL      0.131003
    138 H65         8.9790   -4.2490   -0.8290 hc        1 MOL      0.131003
    139 H66         7.9700   -4.2660   -2.2670 hc        1 MOL      0.131003
    140 N12         6.8430    0.1420   -0.5910 n         1 MOL     -0.398706
    141 C43         6.7390    1.5720   -0.1280 c3        1 MOL      0.095911
    142 C44         5.8060    1.7210    1.0760 c         1 MOL      0.290185
    143 O21         6.1210    2.5330    1.9610 o         1 MOL     -0.494761
    144 C45         6.3410    2.5270   -1.2930 c3        1 MOL     -0.175895
    145 C46         7.3640    2.4180   -2.4620 c3        1 MOL      0.266939
    146 C47         6.9090    3.3470   -3.5720 c3        1 MOL     -0.055900
    147 C48         7.7400    3.2820   -4.7910 c3        1 MOL     -0.041736
    148 N13         7.8910    1.8790   -5.2790 n4        1 MOL     -0.455867
    149 H67         6.4630   -0.1120   -1.4800 hn        1 MOL      0.323702
    150 H68         7.6950    1.9370    0.2390 h1        1 MOL      0.112448
    151 H69         6.4310    3.5730   -0.9830 hc        1 MOL      0.054596
    152 H70         5.3940    2.2550   -1.7660 hc        1 MOL      0.054596
    153 H71         7.4240    1.3970   -2.8320 hc        1 MOL     -0.076690
    154 H72         8.3320    2.6550   -2.0390 hc        1 MOL     -0.076690
    155 H73         6.9430    4.3670   -3.2070 hc        1 MOL      0.048885
    156 H74         5.8590    3.1590   -3.8110 hc        1 MOL      0.048885
    157 H75         8.6940    3.7750   -4.5970 hx        1 MOL      0.112424
    158 H76         7.3160    3.8760   -5.5950 hx        1 MOL      0.112424
    159 H77         6.9950    1.4200   -5.2000 hn        1 MOL      0.329855
    160 H78         8.0470    1.8920   -6.2750 hn        1 MOL      0.329855
    161 H79         8.6340    1.3840   -4.8010 hn        1 MOL      0.329855
    162 N14         4.7140    0.9120    1.1290 n         1 MOL      0.044292
    163 C49         3.8480    1.0170    2.2510 c3        1 MOL     -0.164836
    164 C50         4.4670    0.2670    3.4430 c         1 MOL      0.523952
    165 O22         4.4030    0.7360    4.5170 o         1 MOL     -0.537994
    166 C51         2.4020    0.5810    1.8630 c3        1 MOL      0.146990
    167 C52         1.8470    1.5160    0.6910 c3        1 MOL      0.026116
    168 C53         0.6960    0.8030    0.0120 c         1 MOL      0.600054
    169 O23         0.8680   -0.2950   -0.5730 o         1 MOL     -0.670759
    170 O24        -0.4260    1.3960   -0.0340 o         1 MOL     -0.670759
    171 H80         4.6110    0.1450    0.4820 hn        1 MOL      0.009756
    172 H81         3.7870    2.0730    2.5250 h1        1 MOL      0.090019
    173 H82         1.7550    0.6570    2.7440 hc        1 MOL      0.038118
    174 H83         2.3580   -0.4680    1.5870 hc        1 MOL      0.038118
    175 H84         2.6520    1.7050   -0.0140 hc        1 MOL     -0.058680
    176 H85         1.6610    2.5230    1.0670 hc        1 MOL     -0.058680
    177 N15         5.1750   -0.8840    3.2240 n         1 MOL     -0.023444
    178 C54         5.9770   -1.5160    4.2040 c3        1 MOL     -0.367979
    179 H86         6.5540   -2.3170    3.7390 h1        1 MOL      0.114880
    180 H87         6.6580   -0.7880    4.6430 h1        1 MOL      0.114880
    181 H88         5.3380   -1.9340    4.9820 h1        1 MOL      0.114880
    182 H89         5.1380   -1.3090    2.3060 hn        1 MOL      0.071343
    183 Ca1        -1.9060   -0.5510   -1.2890 Ca        1 MOL      1.744398
    184 O25        -1.2400   -2.7560   -2.2950 oh        1 MOL     -0.887497
    185 H90        -0.9980   -2.6390   -3.2150 ho        1 MOL      0.403874
    186 H91        -1.9970   -3.3410   -2.3160 ho        1 MOL      0.403874
    187 O26        -0.5610    0.3550   -3.3940 oh        1 MOL     -0.887497
    188 H92        -1.1780    0.9550   -3.8270 ho        1 MOL      0.403874
    189 H93         0.1850    0.3130   -3.9970 ho        1 MOL      0.403874
@<TRIPOS>BOND
     1    1    2 1   
     2    1    4 1   
     3    1    5 1   
     4    1    6 1   
     5    2    3 2   
     6    2    7 1   
     7    7    8 1   
     8    7   15 1   
     9    8    9 1   
    10    8   11 1   
    11    8   16 1   
    12    9   10 2   
    13    9   19 1   
    14   11   12 1   
    15   11   17 1   
    16   11   18 1   
    17   12   13 1   
    18   12   14 1   
    19   19   20 1   
    20   19   28 1   
    21   20   21 1   
    22   20   23 1   
    23   20   29 1   
    24   21   22 2   
    25   21   41 1   
    26   23   24 1   
    27   23   30 1   
    28   23   31 1   
    29   24   25 1   
    30   24   32 1   
    31   24   33 1   
    32   25   26 1   
    33   25   34 1   
    34   25   35 1   
    35   26   27 1   
    36   26   36 1   
    37   26   37 1   
    38   27   38 1   
    39   27   39 1   
    40   27   40 1   
    41   41   42 1   
    42   41   49 1   
    43   42   43 1   
    44   42   45 1   
    45   42   50 1   
    46   43   44 2   
    47   43   53 1   
    48   45   46 1   
    49   45   51 1   
    50   45   52 1   
    51   46   47 1   
    52   46   48 1   
    53   53   54 1   
    54   53   57 1   
    55   54   55 1   
    56   54   58 1   
    57   54   59 1   
    58   55   56 2   
    59   55   60 1   
    60   60   61 1   
    61   60   68 1   
    62   61   62 1   
    63   61   64 1   
    64   61   69 1   
    65   62   63 2   
    66   62   72 1   
    67   64   65 1   
    68   64   70 1   
    69   64   71 1   
    70   65   66 1   
    71   65   67 1   
    72   72   73 1   
    73   72   76 1   
    74   73   74 1   
    75   73   77 1   
    76   73   78 1   
    77   74   75 2   
    78   74   79 1   
    79   79   80 1   
    80   79   86 1   
    81   80   81 1   
    82   80   83 1   
    83   80   87 1   
    84   81   82 2   
    85   81   93 1   
    86   83   84 1   
    87   83   85 1   
    88   83   88 1   
    89   84   90 1   
    90   84   91 1   
    91   84   92 1   
    92   85   89 1   
    93   93   94 1   
    94   93  101 1   
    95   94   95 1   
    96   94   97 1   
    97   94  102 1   
    98   95   96 2   
    99   95  112 1   
   100   97   98 1   
   101   97   99 1   
   102   97  103 1   
   103   98  100 1   
   104   98  104 1   
   105   98  105 1   
   106   99  106 1   
   107   99  107 1   
   108   99  108 1   
   109  100  109 1   
   110  100  110 1   
   111  100  111 1   
   112  112  113 1   
   113  112  119 1   
   114  113  114 1   
   115  113  116 1   
   116  113  120 1   
   117  114  115 2   
   118  114  126 1   
   119  116  117 1   
   120  116  118 1   
   121  116  121 1   
   122  117  123 1   
   123  117  124 1   
   124  117  125 1   
   125  118  122 1   
   126  126  127 1   
   127  126  133 1   
   128  127  128 1   
   129  127  130 1   
   130  127  134 1   
   131  128  129 2   
   132  128  140 1   
   133  130  131 1   
   134  130  132 1   
   135  130  135 1   
   136  131  137 1   
   137  131  138 1   
   138  131  139 1   
   139  132  136 1   
   140  140  141 1   
   141  140  149 1   
   142  141  142 1   
   143  141  144 1   
   144  141  150 1   
   145  142  143 2   
   146  142  162 1   
   147  144  145 1   
   148  144  151 1   
   149  144  152 1   
   150  145  146 1   
   151  145  153 1   
   152  145  154 1   
   153  146  147 1   
   154  146  155 1   
   155  146  156 1   
   156  147  148 1   
   157  147  157 1   
   158  147  158 1   
   159  148  159 1   
   160  148  160 1   
   161  148  161 1   
   162  162  163 1   
   163  162  171 1   
   164  163  164 1   
   165  163  166 1   
   166  163  172 1   
   167  164  165 2   
   168  164  177 1   
   169  166  167 1   
   170  166  173 1   
   171  166  174 1   
   172  167  168 1   
   173  167  175 1   
   174  167  176 1   
   175  168  169 1   
   176  168  170 1   
   177  177  178 1   
   178  177  182 1   
   179  178  179 1   
   180  178  180 1   
   181  178  181 1   
   182  184  185 1   
   183  184  186 1   
   184  187  188 1   
   185  187  189 1   
@<TRIPOS>SUBSTRUCTURE
     1 MOL         1 TEMP              0 ****  ****    0 ROOT
