@<TRIPOS>MOLECULE
MOL
  175   173     1     0     0
SMALL
resp


@<TRIPOS>ATOM
      1 C1          0.0070    4.8340    5.2350 c3        1 MOL     -0.346831
      2 C2         -0.6390    4.7820    3.7980 c         1 MOL      0.695733
      3 O1          0.0060    5.1560    2.8050 o         1 MOL     -0.544025
      4 H1          1.0890    4.9380    5.1430 hc        1 MOL      0.082025
      5 H2         -0.3930    5.6870    5.7830 hc        1 MOL      0.082025
      6 H3         -0.2250    3.9140    5.7720 hc        1 MOL      0.082025
      7 N1         -1.8180    4.1490    3.7110 n         1 MOL     -0.630190
      8 C3         -2.4460    3.6790    2.4210 c3        1 MOL      0.022834
      9 C4         -2.6890    4.7990    1.4300 c         1 MOL      0.644558
     10 O2         -3.1500    5.8860    1.7900 o         1 MOL     -0.576322
     11 C5         -3.8140    3.0870    2.7810 c3        1 MOL     -0.381196
     12 C6         -4.4130    2.3530    1.6000 c         1 MOL      0.775648
     13 O3         -5.5420    1.8540    1.7390 o         1 MOL     -0.691108
     14 O4         -3.7160    2.1060    0.5690 o         1 MOL     -0.691108
     15 H4         -2.3410    3.9330    4.5490 hn        1 MOL      0.331739
     16 H5         -1.6860    3.0290    1.9830 h1        1 MOL      0.158716
     17 H6         -4.5670    3.7910    3.1110 hc        1 MOL      0.108154
     18 H7         -3.7050    2.4460    3.6490 hc        1 MOL      0.108154
     19 N2         -2.3550    4.5600    0.1400 n         1 MOL     -0.572949
     20 C7         -2.6670    5.4540   -0.9330 c3        1 MOL      0.364605
     21 C8         -3.5090    4.7010   -2.0540 c         1 MOL      0.495445
     22 O5         -3.4970    5.2790   -3.1190 o         1 MOL     -0.586655
     23 C9         -1.4150    6.2230   -1.4340 c3        1 MOL     -0.195768
     24 H8         -1.9900    3.6530   -0.1210 hn        1 MOL      0.311525
     25 H9         -3.3350    6.2130   -0.5260 h1        1 MOL     -0.032401
     26 H10        -0.7830    5.4530   -1.8860 hc        1 MOL      0.042061
     27 H11        -1.5880    6.9500   -2.2370 hc        1 MOL      0.042061
     28 H12        -0.8240    6.7110   -0.6560 hc        1 MOL      0.042061
     29 N3         -4.1590    3.6070   -1.9150 n         1 MOL     -0.423545
     30 C10        -4.7500    2.9640   -3.0880 c3        1 MOL      0.149469
     31 C11        -6.1120    2.2770   -2.8300 c         1 MOL      0.420725
     32 O6         -6.9140    2.1920   -3.7550 o         1 MOL     -0.568805
     33 C12        -3.7530    2.0770   -3.8100 c3        1 MOL     -0.192318
     34 C13        -3.1520    1.0880   -2.8330 c         1 MOL      0.706090
     35 O7         -3.7700    0.4220   -1.9910 o         1 MOL     -0.707693
     36 O8         -1.9010    1.0180   -2.7600 o         1 MOL     -0.707693
     37 H13        -4.2430    3.1700   -1.0040 hn        1 MOL      0.199533
     38 H14        -5.0580    3.7670   -3.7440 h1        1 MOL      0.051979
     39 H15        -3.0190    2.7490   -4.2360 hc        1 MOL      0.063660
     40 H16        -4.1810    1.5760   -4.6800 hc        1 MOL      0.063660
     41 N4         -6.3340    1.6750   -1.6770 n         1 MOL     -0.204691
     42 C14        -7.4280    0.8540   -1.2530 c3        1 MOL     -0.206455
     43 C15        -7.2620   -0.6650   -1.3510 c         1 MOL      0.518846
     44 O9         -8.2340   -1.3880   -1.1560 o         1 MOL     -0.617500
     45 H17        -5.5720    1.7480   -1.0130 hn        1 MOL      0.172514
     46 H18        -8.3900    1.1460   -1.6780 h1        1 MOL      0.110163
     47 H19        -7.5800    0.9390   -0.1790 h1        1 MOL      0.110163
     48 N5         -6.1090   -1.1230   -1.8110 n         1 MOL     -0.175114
     49 C16        -5.9760   -2.5400   -2.1290 c3        1 MOL     -0.178380
     50 C17        -5.9750   -3.6210   -0.9700 c         1 MOL      0.504729
     51 O10        -5.7720   -4.7700   -1.3520 o         1 MOL     -0.532980
     52 C18        -4.7430   -2.6490   -3.0520 c3        1 MOL     -0.010151
     53 C19        -3.4140   -2.6260   -2.3220 c         1 MOL      0.439423
     54 N6         -2.3220   -2.8270   -3.0560 n         1 MOL     -0.647395
     55 O11        -3.2500   -2.3530   -1.1160 o         1 MOL     -0.296991
     56 H20        -5.4000   -0.4500   -2.0670 hn        1 MOL      0.211303
     57 H21        -6.8630   -2.8020   -2.7020 h1        1 MOL      0.120287
     58 H22        -4.7930   -1.9060   -3.8440 hc        1 MOL      0.029154
     59 H23        -4.8200   -3.5830   -3.6130 hc        1 MOL      0.029154
     60 H24        -2.4620   -2.8700   -4.0570 hn        1 MOL      0.324703
     61 H25        -1.4360   -2.5380   -2.6780 hn        1 MOL      0.324703
     62 N7         -6.1660   -3.3200    0.2840 n         1 MOL     -0.270240
     63 C20        -6.1790   -4.2610    1.3950 c3        1 MOL     -0.181401
     64 C21        -4.7820   -4.5890    2.0250 c         1 MOL      0.509834
     65 O12        -4.6740   -5.2730    3.0730 o         1 MOL     -0.594798
     66 H26        -6.1970   -2.3510    0.5660 hn        1 MOL      0.236999
     67 H27        -6.6430   -5.2320    1.2290 h1        1 MOL      0.114078
     68 H28        -6.7910   -3.8120    2.1840 h1        1 MOL      0.114078
     69 N8         -3.6900   -4.0050    1.5440 n         1 MOL     -0.259221
     70 C22        -2.2400   -4.3340    1.8670 c3        1 MOL      0.008457
     71 C23        -1.2790   -3.1930    2.0460 c         1 MOL      0.438096
     72 O13        -1.5610   -2.1390    1.4230 o         1 MOL     -0.616902
     73 C24        -1.6180   -5.2990    0.8190 c3        1 MOL      0.509870
     74 C25        -2.1650   -6.7540    0.8770 c3        1 MOL     -0.462295
     75 O14        -1.8820   -4.8280   -0.4920 oh        1 MOL     -0.592334
     76 H29        -3.7260   -3.4430    0.7070 hn        1 MOL      0.149526
     77 H30        -2.1690   -4.8630    2.8150 h1        1 MOL      0.030720
     78 H31        -0.5520   -5.3770    1.0310 h1        1 MOL     -0.053325
     79 H32        -1.7320   -3.8850   -0.4560 ho        1 MOL      0.307488
     80 H33        -3.2070   -6.7360    1.2020 hc        1 MOL      0.115730
     81 H34        -2.1970   -7.1300   -0.1500 hc        1 MOL      0.115730
     82 H35        -1.5570   -7.4530    1.4580 hc        1 MOL      0.115730
     83 N9         -0.1620   -3.3600    2.7460 n         1 MOL     -0.304467
     84 C26         1.0790   -2.5640    2.5480 c3        1 MOL     -0.021117
     85 C27         1.7970   -2.9530    1.2620 c         1 MOL      0.437171
     86 O15         2.4300   -3.9960    1.1260 o         1 MOL     -0.545906
     87 C28         1.9500   -2.7470    3.8610 c3        1 MOL     -0.036326
     88 C29         1.2900   -2.0800    5.0990 c3        1 MOL     -0.068981
     89 C30         3.4400   -2.2260    3.7970 c3        1 MOL     -0.205593
     90 C31         1.2920   -0.5840    5.0780 c3        1 MOL     -0.286144
     91 H36         0.0040   -4.2600    3.1610 hn        1 MOL      0.232815
     92 H37         0.7720   -1.5250    2.4600 h1        1 MOL      0.235411
     93 H38         2.0180   -3.8350    3.9570 hc        1 MOL      0.037844
     94 H39         1.7840   -2.4110    6.0050 hc        1 MOL      0.031137
     95 H40         0.2850   -2.4990    5.0930 hc        1 MOL      0.031137
     96 H41         3.8660   -2.1160    4.8000 hc        1 MOL      0.075848
     97 H42         4.0640   -2.9750    3.3250 hc        1 MOL      0.075848
     98 H43         3.4360   -1.2380    3.3480 hc        1 MOL      0.075848
     99 H44         2.2870   -0.1490    5.2170 hc        1 MOL      0.075599
    100 H45         0.8180   -0.1520    4.1880 hc        1 MOL      0.075599
    101 H46         0.7970   -0.2420    5.9790 hc        1 MOL      0.075599
    102 N10         1.8150   -1.9960    0.3080 n         1 MOL     -0.281117
    103 C32         2.6580   -2.0090   -0.7850 c3        1 MOL      0.170024
    104 C33         4.1270   -1.6760   -0.5490 c         1 MOL      0.412946
    105 O16         4.4740   -0.9740    0.4350 o         1 MOL     -0.358892
    106 C34         2.0640   -1.0570   -1.7580 c3        1 MOL     -0.198180
    107 C35         0.5670   -1.3790   -2.2730 c         1 MOL      0.660490
    108 O17        -0.3760   -1.4400   -1.5010 o         1 MOL     -0.656330
    109 O18         0.3970   -1.6030   -3.5100 o         1 MOL     -0.656330
    110 H47         1.4270   -1.1050    0.5930 hn        1 MOL      0.157850
    111 H48         2.7020   -2.9730   -1.3060 h1        1 MOL      0.027783
    112 H49         2.6980   -0.9990   -2.6470 hc        1 MOL      0.056676
    113 H50         2.0930   -0.0890   -1.2600 hc        1 MOL      0.056676
    114 N11         5.0620   -2.1110   -1.3740 n         1 MOL     -0.594485
    115 C36         6.4630   -1.6980   -1.2990 c3        1 MOL      0.304335
    116 C37         6.6860   -0.1350   -1.1640 c         1 MOL      0.529205
    117 O19         7.4970    0.1660   -0.2690 o         1 MOL     -0.520918
    118 C38         7.3150   -2.2670   -2.4300 c3        1 MOL     -0.064293
    119 C39         8.7340   -1.8410   -2.3250 ca        1 MOL      0.135964
    120 C40         9.4530   -2.0690   -1.1130 ca        1 MOL     -0.266730
    121 C41         9.3240   -1.1550   -3.3520 ca        1 MOL     -0.266730
    122 C42        10.7310   -1.5900   -0.9080 ca        1 MOL      0.035298
    123 C43        10.7030   -0.8120   -3.2090 ca        1 MOL      0.035298
    124 C44        11.4270   -1.0380   -2.0510 ca        1 MOL     -0.266977
    125 H51         4.8900   -2.7570   -2.1290 hn        1 MOL      0.313020
    126 H52         6.8930   -2.2310   -0.4620 h1        1 MOL      0.046550
    127 H53         6.9140   -1.8840   -3.3660 hc        1 MOL      0.018209
    128 H54         7.2970   -3.3480   -2.5660 hc        1 MOL      0.018209
    129 H55         8.9460   -2.6590   -0.3740 ha        1 MOL      0.131950
    130 H56         8.7930   -0.7670   -4.2110 ha        1 MOL      0.131950
    131 H57        11.3310   -1.9820   -0.1040 ha        1 MOL      0.070727
    132 H58        11.2100   -0.3180   -4.0300 ha        1 MOL      0.070727
    133 H59        12.4890   -0.8740   -1.9460 ha        1 MOL      0.135085
    134 N12         5.9500    0.7520   -1.8700 n         1 MOL     -0.330035
    135 C45         6.0770    2.2570   -1.6600 c3        1 MOL      0.106848
    136 C46         5.5190    2.7770   -0.3490 c         1 MOL      0.275455
    137 O20         6.0250    3.7920    0.0760 o         1 MOL     -0.500553
    138 C47         5.2100    2.7600   -2.9370 c3        1 MOL     -0.127341
    139 C48         5.2910    1.6400   -3.9770 c3        1 MOL      0.047118
    140 C49         5.1100    0.4290   -3.0420 c3        1 MOL     -0.011925
    141 H60         7.1030    2.6010   -1.7840 h1        1 MOL      0.071345
    142 H61         4.1700    2.8270   -2.6320 hc        1 MOL      0.070273
    143 H62         5.5670    3.7580   -3.2090 hc        1 MOL      0.070273
    144 H63         4.5720    1.6910   -4.7930 hc        1 MOL      0.012473
    145 H64         6.2430    1.6940   -4.5170 hc        1 MOL      0.012473
    146 H65         4.1110    0.4270   -2.6170 h1        1 MOL      0.044097
    147 H66         5.3950   -0.4860   -3.5710 h1        1 MOL      0.044097
    148 N13         4.5580    2.0930    0.3210 n         1 MOL     -0.013960
    149 C50         4.0340    2.5340    1.6460 c3        1 MOL     -0.158252
    150 C51         4.9230    1.8180    2.7280 c         1 MOL      0.443586
    151 O21         5.0350    2.3180    3.8580 o         1 MOL     -0.568301
    152 C52         2.5790    2.0680    1.8890 c3        1 MOL      0.091744
    153 C53         1.5770    2.5580    0.8040 c3        1 MOL      0.124536
    154 C54         0.3920    1.6700    0.4930 c         1 MOL      0.399684
    155 O22         0.2920    0.5110    0.9740 o         1 MOL     -0.609636
    156 O23        -0.5240    2.2180   -0.2010 o         1 MOL     -0.609636
    157 H67         4.2800    1.2430   -0.1610 hn        1 MOL      0.059808
    158 H68         4.1420    3.6030    1.7990 h1        1 MOL      0.134679
    159 H69         2.2650    2.4760    2.8540 hc        1 MOL     -0.020286
    160 H70         2.4450    0.9780    1.8810 hc        1 MOL     -0.020286
    161 H71         2.0650    2.9460   -0.0860 hc        1 MOL     -0.007433
    162 H72         1.1190    3.4580    1.2280 hc        1 MOL     -0.007433
    163 N14         5.7090    0.7980    2.3880 n         1 MOL      0.015879
    164 C55         6.6900    0.1600    3.2460 c3        1 MOL     -0.121992
    165 H73         7.6440    0.6800    3.1550 h1        1 MOL      0.051978
    166 H74         6.3500    0.2030    4.2810 h1        1 MOL      0.051978
    167 H75         6.8130   -0.8810    2.9460 h1        1 MOL      0.051978
    168 H76         5.4660    0.2280    1.5930 hn        1 MOL     -0.044795
    169 Ca1        -2.0950   -0.0040   -0.1430 Ca        1 MOL      1.686573
    170 O24        -1.8540    0.4680    2.7530 oh        1 MOL     -0.777460
    171 H77        -0.9030    0.5730    2.6700 ho        1 MOL      0.375854
    172 H78        -2.0380    0.6740    3.6660 ho        1 MOL      0.375854
    173 O25        -4.5640   -0.6820    0.9760 oh        1 MOL     -0.777460
    174 H79        -5.0360   -1.1590    1.6540 ho        1 MOL      0.375854
    175 H80        -4.9530    0.1900    0.9640 ho        1 MOL      0.375854
@<TRIPOS>BOND
     1    1    2 1   
     2    1    4 1   
     3    1    5 1   
     4    1    6 1   
     5    2    3 2   
     6    2    7 1   
     7    7    8 1   
     8    7   15 1   
     9    8    9 1   
    10    8   11 1   
    11    8   16 1   
    12    9   10 2   
    13    9   19 1   
    14   11   12 1   
    15   11   17 1   
    16   11   18 1   
    17   12   13 1   
    18   12   14 1   
    19   19   20 1   
    20   19   24 1   
    21   20   21 1   
    22   20   23 1   
    23   20   25 1   
    24   21   22 2   
    25   21   29 1   
    26   23   26 1   
    27   23   27 1   
    28   23   28 1   
    29   29   30 1   
    30   29   37 1   
    31   30   31 1   
    32   30   33 1   
    33   30   38 1   
    34   31   32 2   
    35   31   41 1   
    36   33   34 1   
    37   33   39 1   
    38   33   40 1   
    39   34   35 1   
    40   34   36 1   
    41   41   42 1   
    42   41   45 1   
    43   42   43 1   
    44   42   46 1   
    45   42   47 1   
    46   43   44 2   
    47   43   48 1   
    48   48   49 1   
    49   48   56 1   
    50   49   50 1   
    51   49   52 1   
    52   49   57 1   
    53   50   51 2   
    54   50   62 1   
    55   52   53 1   
    56   52   58 1   
    57   52   59 1   
    58   53   54 1   
    59   53   55 2   
    60   54   60 1   
    61   54   61 1   
    62   62   63 1   
    63   62   66 1   
    64   63   64 1   
    65   63   67 1   
    66   63   68 1   
    67   64   65 2   
    68   64   69 1   
    69   69   70 1   
    70   69   76 1   
    71   70   71 1   
    72   70   73 1   
    73   70   77 1   
    74   71   72 2   
    75   71   83 1   
    76   73   74 1   
    77   73   75 1   
    78   73   78 1   
    79   74   80 1   
    80   74   81 1   
    81   74   82 1   
    82   75   79 1   
    83   83   84 1   
    84   83   91 1   
    85   84   85 1   
    86   84   87 1   
    87   84   92 1   
    88   85   86 2   
    89   85  102 1   
    90   87   88 1   
    91   87   89 1   
    92   87   93 1   
    93   88   90 1   
    94   88   94 1   
    95   88   95 1   
    96   89   96 1   
    97   89   97 1   
    98   89   98 1   
    99   90   99 1   
   100   90  100 1   
   101   90  101 1   
   102  102  103 1   
   103  102  110 1   
   104  103  104 1   
   105  103  106 1   
   106  103  111 1   
   107  104  105 2   
   108  104  114 1   
   109  106  107 1   
   110  106  112 1   
   111  106  113 1   
   112  107  108 1   
   113  107  109 1   
   114  114  115 1   
   115  114  125 1   
   116  115  116 1   
   117  115  118 1   
   118  115  126 1   
   119  116  117 2   
   120  116  134 1   
   121  118  119 1   
   122  118  127 1   
   123  118  128 1   
   124  119  120 ar  
   125  119  121 ar  
   126  120  122 ar  
   127  120  129 1   
   128  121  123 ar  
   129  121  130 1   
   130  122  124 ar  
   131  122  131 1   
   132  123  124 ar  
   133  123  132 1   
   134  124  133 1   
   135  134  135 1   
   136  134  140 1   
   137  135  136 1   
   138  135  138 1   
   139  135  141 1   
   140  136  137 2   
   141  136  148 1   
   142  138  139 1   
   143  138  142 1   
   144  138  143 1   
   145  139  140 1   
   146  139  144 1   
   147  139  145 1   
   148  140  146 1   
   149  140  147 1   
   150  148  149 1   
   151  148  157 1   
   152  149  150 1   
   153  149  152 1   
   154  149  158 1   
   155  150  151 2   
   156  150  163 1   
   157  152  153 1   
   158  152  159 1   
   159  152  160 1   
   160  153  154 1   
   161  153  161 1   
   162  153  162 1   
   163  154  155 1   
   164  154  156 1   
   165  163  164 1   
   166  163  168 1   
   167  164  165 1   
   168  164  166 1   
   169  164  167 1   
   170  170  171 1   
   171  170  172 1   
   172  173  174 1   
   173  173  175 1   
@<TRIPOS>SUBSTRUCTURE
     1 MOL         1 TEMP              0 ****  ****    0 ROOT
