@<TRIPOS>MOLECULE
MOL
  179   176     1     0     0
SMALL
resp


@<TRIPOS>ATOM
      1 C1          1.2900    3.4750    5.9830 c3        1 MOL     -0.341226
      2 C2          0.7490    3.1950    4.5920 c         1 MOL      0.699959
      3 O1          1.5580    3.4200    3.6770 o         1 MOL     -0.604046
      4 H1          1.2680    4.5480    6.1720 hc        1 MOL      0.089825
      5 H2          0.6750    2.9640    6.7230 hc        1 MOL      0.089825
      6 H3          2.3170    3.1160    6.0530 hc        1 MOL      0.089825
      7 N1         -0.4280    2.6320    4.3450 n         1 MOL     -0.511991
      8 C3         -0.9350    2.3050    3.0500 c3        1 MOL      0.155255
      9 C4         -1.0450    3.6530    2.2670 c         1 MOL      0.400322
     10 O2         -1.8070    4.5650    2.6950 o         1 MOL     -0.521939
     11 C5         -2.2300    1.5680    3.2370 c3        1 MOL     -0.244826
     12 C6         -2.9140    1.0920    1.9530 c         1 MOL      0.805903
     13 O3         -4.1190    0.6700    2.1480 o         1 MOL     -0.753371
     14 O4         -2.3960    1.3090    0.8250 o         1 MOL     -0.753371
     15 H4         -1.0780    2.6530    5.1150 hn        1 MOL      0.300164
     16 H5         -0.1870    1.7170    2.5200 h1        1 MOL     -0.017755
     17 H6         -2.8830    2.2390    3.7840 hc        1 MOL      0.067668
     18 H7         -1.9210    0.6630    3.7690 hc        1 MOL      0.067668
     19 N2         -0.2150    3.7840    1.2190 n         1 MOL     -0.041067
     20 C7          0.0360    5.1410    0.6670 c3        1 MOL     -0.136398
     21 C8         -1.1400    5.7260   -0.1820 c         1 MOL      0.425328
     22 O5         -1.2840    6.9520   -0.3770 o         1 MOL     -0.560080
     23 C9          1.3440    5.2640   -0.1640 c3        1 MOL     -0.180825
     24 C10         1.2500    4.7400   -1.5790 c3        1 MOL     -0.006713
     25 C11         2.5770    4.8940   -2.3500 c3        1 MOL      0.109388
     26 C12         2.9140    6.2220   -2.9320 c3        1 MOL      0.061371
     27 N3          4.0200    6.2230   -3.8810 n4        1 MOL     -0.449213
     28 H8          0.3630    3.0040    0.9190 hn        1 MOL      0.180288
     29 H9          0.1360    5.7950    1.5260 h1        1 MOL      0.132646
     30 H10         2.1040    4.6470    0.3100 hc        1 MOL      0.098217
     31 H11         1.6480    6.3100   -0.1020 hc        1 MOL      0.098217
     32 H12         0.5360    5.3270   -2.1700 hc        1 MOL      0.002457
     33 H13         1.0890    3.6650   -1.6650 hc        1 MOL      0.002457
     34 H14         2.6390    4.1570   -3.1620 hc        1 MOL     -0.018931
     35 H15         3.4030    4.6170   -1.6890 hc        1 MOL     -0.018931
     36 H16         3.0570    6.8260   -2.0290 hx        1 MOL      0.070781
     37 H17         2.0410    6.5500   -3.5030 hx        1 MOL      0.070781
     38 H18         4.2810    7.1950   -3.8510 hn        1 MOL      0.355704
     39 H19         4.8320    5.7070   -3.5750 hn        1 MOL      0.355704
     40 H20         3.7190    5.8220   -4.7530 hn        1 MOL      0.355704
     41 N4         -2.0950    4.8790   -0.6070 n         1 MOL     -0.087310
     42 C13        -3.3270    5.1830   -1.4010 c3        1 MOL     -0.019519
     43 C14        -4.6130    4.7050   -0.7110 c         1 MOL      0.340349
     44 O6         -5.7320    5.0220   -1.1940 o         1 MOL     -0.515369
     45 C15        -3.2140    4.5590   -2.8520 c3        1 MOL     -0.116517
     46 C16        -2.8600    3.0370   -2.9730 c         1 MOL      0.671323
     47 O7         -2.4760    2.3690   -1.9580 o         1 MOL     -0.710738
     48 O8         -2.5980    2.5700   -4.1060 o         1 MOL     -0.710738
     49 H21        -1.9450    3.9190   -0.3490 hn        1 MOL      0.045692
     50 H22        -3.3400    6.2700   -1.5040 h1        1 MOL      0.107316
     51 H23        -2.5210    5.2180   -3.3690 hc        1 MOL      0.052175
     52 H24        -4.1390    4.7750   -3.3820 hc        1 MOL      0.052175
     53 N5         -4.4510    3.9480    0.3660 n         1 MOL     -0.054867
     54 C17        -5.5240    3.3730    1.1660 c3        1 MOL     -0.105264
     55 C18        -6.2290    2.1120    0.5450 c         1 MOL      0.443076
     56 O9         -7.4510    1.9880    0.6530 o         1 MOL     -0.554784
     57 H25        -3.5330    4.0090    0.7730 hn        1 MOL      0.099670
     58 H26        -6.2320    4.1470    1.4640 h1        1 MOL      0.099412
     59 H27        -5.0370    3.1290    2.1130 h1        1 MOL      0.099412
     60 N6         -5.5220    1.3130   -0.2940 n         1 MOL     -0.044221
     61 C19        -6.1390    0.2610   -1.1160 c3        1 MOL     -0.185391
     62 C20        -6.3440   -1.0770   -0.2670 c         1 MOL      0.398676
     63 O10        -6.7840   -2.0220   -0.8230 o         1 MOL     -0.412164
     64 C21        -5.3250    0.0410   -2.4110 c3        1 MOL     -0.120453
     65 C22        -4.2450   -0.9510   -2.4160 c         1 MOL      0.575726
     66 N7         -3.8730   -1.5480   -3.5280 n         1 MOL     -0.746342
     67 O11        -3.5870   -1.1580   -1.4450 o         1 MOL     -0.469427
     68 H28        -4.5330    1.5000   -0.1820 hn        1 MOL      0.029150
     69 H29        -7.1090    0.7000   -1.3720 h1        1 MOL      0.166867
     70 H30        -4.9070    0.9930   -2.7620 hc        1 MOL      0.079148
     71 H31        -6.1000   -0.3130   -3.0980 hc        1 MOL      0.079148
     72 H32        -4.2970   -1.3010   -4.4060 hn        1 MOL      0.347466
     73 H33        -3.2360   -2.3260   -3.5350 hn        1 MOL      0.347466
     74 N8         -6.0570   -1.1150    1.0890 n         1 MOL     -0.332222
     75 C23        -6.2070   -2.3330    1.8680 c3        1 MOL     -0.160686
     76 C24        -4.9290   -3.1620    1.8870 c         1 MOL      0.648097
     77 O12        -4.8900   -4.1700    2.6280 o         1 MOL     -0.622505
     78 H34        -5.6210   -0.3530    1.5820 hn        1 MOL      0.342194
     79 H35        -7.0460   -2.8550    1.4040 h1        1 MOL      0.113170
     80 H36        -6.5840   -2.1960    2.8840 h1        1 MOL      0.113170
     81 N9         -3.8490   -2.8470    1.2750 n         1 MOL     -0.448540
     82 C25        -2.6420   -3.6220    1.0430 c3        1 MOL      0.310141
     83 C26        -1.3500   -2.7650    1.0690 c         1 MOL      0.568653
     84 O13        -1.2540   -1.6570    0.4970 o         1 MOL     -0.644780
     85 C27        -2.7060   -4.3780   -0.3310 c3        1 MOL     -0.231018
     86 C28        -3.9500   -5.1210   -0.5220 ca        1 MOL      0.004393
     87 C29        -5.0050   -4.5750   -1.2760 ca        1 MOL     -0.052331
     88 C30        -4.0680   -6.4160   -0.1290 ca        1 MOL     -0.052331
     89 C31        -6.1020   -5.3480   -1.6660 ca        1 MOL     -0.312961
     90 C32        -5.1560   -7.2000   -0.4590 ca        1 MOL     -0.312961
     91 C33        -6.1710   -6.6800   -1.2460 ca        1 MOL      0.370148
     92 O14        -7.3050   -7.4030   -1.5660 oh        1 MOL     -0.493743
     93 H37        -3.8760   -2.0130    0.7010 hn        1 MOL      0.200366
     94 H38        -2.5680   -4.2210    1.9530 h1        1 MOL      0.026936
     95 H39        -1.7810   -4.9560   -0.3790 hc        1 MOL      0.056939
     96 H40        -2.6830   -3.6780   -1.1670 hc        1 MOL      0.056939
     97 H41        -4.9460   -3.5990   -1.7260 ha        1 MOL      0.091996
     98 H42        -3.2610   -6.8970    0.4010 ha        1 MOL      0.091996
     99 H43        -6.9810   -4.9940   -2.1900 ha        1 MOL      0.153314
    100 H44        -5.1690   -8.1940   -0.0390 ha        1 MOL      0.153314
    101 H45        -7.3670   -8.1550   -0.9720 ho        1 MOL      0.358538
    102 N10        -0.2750   -3.3070    1.6810 n         1 MOL     -0.637841
    103 C34         1.0990   -2.7220    1.6110 c3        1 MOL      0.287769
    104 C35         2.0310   -3.6090    0.7410 c         1 MOL      0.403971
    105 O15         2.3280   -4.7450    1.1470 o         1 MOL     -0.521420
    106 C36         1.6040   -2.4900    3.0800 c3        1 MOL     -0.042363
    107 C37         0.9390   -1.2440    3.7270 c3        1 MOL      0.222286
    108 C38         3.1190   -2.4720    3.1600 c3        1 MOL     -0.174693
    109 C39         1.2820   -1.0730    5.1980 c3        1 MOL     -0.314602
    110 H46        -0.4450   -4.0870    2.3010 hn        1 MOL      0.326182
    111 H47         1.0490   -1.7160    1.1980 h1        1 MOL     -0.040957
    112 H48         1.2400   -3.3600    3.6200 hc        1 MOL      0.040726
    113 H49        -0.1440   -1.3540    3.6230 hc        1 MOL     -0.015034
    114 H50         1.1080   -0.2760    3.2430 hc        1 MOL     -0.015034
    115 H51         3.6270   -1.6910    2.5930 hc        1 MOL      0.034910
    116 H52         3.3310   -2.4810    4.2280 hc        1 MOL      0.034910
    117 H53         3.4880   -3.4040    2.7340 hc        1 MOL      0.034910
    118 H54         2.1930   -0.4860    5.3640 hc        1 MOL      0.070766
    119 H55         0.4600   -0.5520    5.6950 hc        1 MOL      0.070766
    120 H56         1.4560   -2.0290    5.6850 hc        1 MOL      0.070766
    121 N11         2.6060   -3.0180   -0.3070 n         1 MOL     -0.147063
    122 C40         3.5960   -3.5800   -1.2210 c3        1 MOL     -0.101369
    123 C41         4.9950   -3.3150   -0.6720 c         1 MOL      0.521547
    124 O16         5.1930   -2.5800    0.3280 o         1 MOL     -0.403808
    125 C42         3.4450   -3.1000   -2.6490 c3        1 MOL      0.034164
    126 O17         3.4970   -1.6880   -2.6400 oh        1 MOL     -0.619774
    127 H57         2.2850   -2.1100   -0.6130 hn        1 MOL      0.169185
    128 H58         3.5030   -4.6650   -1.2000 h1        1 MOL      0.067199
    129 H59         2.4550   -3.4330   -2.9600 h1        1 MOL      0.076503
    130 H60         4.1930   -3.5180   -3.3150 h1        1 MOL      0.076503
    131 H61         2.7180   -1.1930   -2.3920 ho        1 MOL      0.425393
    132 N12         6.0520   -3.9790   -1.3250 n         1 MOL     -0.458170
    133 C43         7.4290   -4.0710   -0.8190 c3        1 MOL      0.152698
    134 C44         8.0010   -2.6210   -0.7640 c         1 MOL      0.344855
    135 O18         8.6950   -2.3080    0.2360 o         1 MOL     -0.518092
    136 C45         8.2810   -4.9960   -1.6840 c3        1 MOL     -0.283097
    137 H62         5.8110   -4.5420   -2.1250 hn        1 MOL      0.270512
    138 H63         7.3870   -4.3790    0.2300 h1        1 MOL      0.088654
    139 H64         8.0200   -6.0260   -1.4700 hc        1 MOL      0.091606
    140 H65         8.2390   -4.7530   -2.7550 hc        1 MOL      0.091606
    141 H66         9.3360   -4.8460   -1.4500 hc        1 MOL      0.091606
    142 N13         7.6560   -1.7340   -1.6640 n         1 MOL     -0.153998
    143 C46         8.1130   -0.3710   -1.7730 c3        1 MOL     -0.049082
    144 C47         7.3770    0.6760   -0.9110 c         1 MOL      0.386801
    145 O19         7.9360    1.6540   -0.4610 o         1 MOL     -0.486999
    146 C48         8.0650    0.0540   -3.3080 c3        1 MOL     -0.231273
    147 H67         7.2010   -2.1460   -2.4690 hn        1 MOL      0.217398
    148 H68         9.1470   -0.5230   -1.4460 h1        1 MOL      0.127059
    149 H69         8.6350   -0.6140   -3.9440 hc        1 MOL      0.071798
    150 H70         7.0910    0.0210   -3.7850 hc        1 MOL      0.071798
    151 H71         8.5330    1.0350   -3.4010 hc        1 MOL      0.071798
    152 N14         6.1480    0.3400   -0.5440 n         1 MOL     -0.195196
    153 C49         5.3940    1.0640    0.4910 c3        1 MOL     -0.029958
    154 C50         6.0500    0.7870    1.7950 c         1 MOL      0.431202
    155 O20         6.1770    1.7530    2.5940 o         1 MOL     -0.546438
    156 C51         3.9520    0.5330    0.3820 c3        1 MOL      0.198438
    157 C52         3.2330    1.2280   -0.7500 c3        1 MOL     -0.073456
    158 C53         1.7560    0.8110   -0.7650 c         1 MOL      0.690444
    159 O21         0.8180    1.4990   -0.3630 o         1 MOL     -0.676898
    160 O22         1.4470   -0.2890   -1.3020 o         1 MOL     -0.676898
    161 H72         5.8540   -0.5900   -0.8250 hn        1 MOL      0.109015
    162 H73         5.4950    2.1470    0.4180 h1        1 MOL      0.093970
    163 H74         3.4960    0.9000    1.2990 hc        1 MOL     -0.015358
    164 H75         3.9000   -0.5490    0.2220 hc        1 MOL     -0.015358
    165 H76         3.7370    1.0680   -1.6990 hc        1 MOL     -0.030742
    166 H77         3.3560    2.2890   -0.5370 hc        1 MOL     -0.030742
    167 N15         6.5510   -0.4140    2.1730 n         1 MOL     -0.082710
    168 C54         7.4210   -0.5730    3.3800 c3        1 MOL     -0.406000
    169 H78         7.4310    0.3580    3.9450 h1        1 MOL      0.152328
    170 H79         7.0300   -1.3740    4.0080 h1        1 MOL      0.152328
    171 H80         8.4350   -0.8190    3.0670 h1        1 MOL      0.152328
    172 H81         6.4400   -1.1830    1.5340 hn        1 MOL      0.166150
    173 Ca1        -1.1840    0.2480   -1.1930 Ca        1 MOL      1.749306
    174 O23         0.1470    1.1950   -3.4700 oh        1 MOL     -0.854217
    175 H82         1.0380    1.4390   -3.7350 ho        1 MOL      0.414640
    176 H83        -0.4120    1.8390   -3.9090 ho        1 MOL      0.414640
    177 O24        -0.7940   -1.9310   -2.4900 oh        1 MOL     -0.854217
    178 H84        -1.0000   -2.8580   -2.3710 ho        1 MOL      0.414640
    179 H85        -0.5140   -1.8600   -3.4060 ho        1 MOL      0.414640
@<TRIPOS>BOND
     1    1    2 1   
     2    1    4 1   
     3    1    5 1   
     4    1    6 1   
     5    2    3 2   
     6    2    7 1   
     7    7    8 1   
     8    7   15 1   
     9    8    9 1   
    10    8   11 1   
    11    8   16 1   
    12    9   10 2   
    13    9   19 1   
    14   11   12 1   
    15   11   17 1   
    16   11   18 1   
    17   12   13 1   
    18   12   14 1   
    19   19   20 1   
    20   19   28 1   
    21   20   21 1   
    22   20   23 1   
    23   20   29 1   
    24   21   22 2   
    25   21   41 1   
    26   23   24 1   
    27   23   30 1   
    28   23   31 1   
    29   24   25 1   
    30   24   32 1   
    31   24   33 1   
    32   25   26 1   
    33   25   34 1   
    34   25   35 1   
    35   26   27 1   
    36   26   36 1   
    37   26   37 1   
    38   27   38 1   
    39   27   39 1   
    40   27   40 1   
    41   41   42 1   
    42   41   49 1   
    43   42   43 1   
    44   42   45 1   
    45   42   50 1   
    46   43   44 2   
    47   43   53 1   
    48   45   46 1   
    49   45   51 1   
    50   45   52 1   
    51   46   47 1   
    52   46   48 1   
    53   53   54 1   
    54   53   57 1   
    55   54   55 1   
    56   54   58 1   
    57   54   59 1   
    58   55   56 2   
    59   55   60 1   
    60   60   61 1   
    61   60   68 1   
    62   61   62 1   
    63   61   64 1   
    64   61   69 1   
    65   62   63 2   
    66   62   74 1   
    67   64   65 1   
    68   64   70 1   
    69   64   71 1   
    70   65   66 1   
    71   65   67 2   
    72   66   72 1   
    73   66   73 1   
    74   74   75 1   
    75   74   78 1   
    76   75   76 1   
    77   75   79 1   
    78   75   80 1   
    79   76   77 2   
    80   76   81 1   
    81   81   82 1   
    82   81   93 1   
    83   82   83 1   
    84   82   85 1   
    85   82   94 1   
    86   83   84 2   
    87   83  102 1   
    88   85   86 1   
    89   85   95 1   
    90   85   96 1   
    91   86   87 ar  
    92   86   88 ar  
    93   87   89 ar  
    94   87   97 1   
    95   88   90 ar  
    96   88   98 1   
    97   89   91 ar  
    98   89   99 1   
    99   90   91 ar  
   100   90  100 1   
   101   91   92 1   
   102   92  101 1   
   103  102  103 1   
   104  102  110 1   
   105  103  104 1   
   106  103  106 1   
   107  103  111 1   
   108  104  105 2   
   109  104  121 1   
   110  106  107 1   
   111  106  108 1   
   112  106  112 1   
   113  107  109 1   
   114  107  113 1   
   115  107  114 1   
   116  108  115 1   
   117  108  116 1   
   118  108  117 1   
   119  109  118 1   
   120  109  119 1   
   121  109  120 1   
   122  121  122 1   
   123  121  127 1   
   124  122  123 1   
   125  122  125 1   
   126  122  128 1   
   127  123  124 2   
   128  123  132 1   
   129  125  126 1   
   130  125  129 1   
   131  125  130 1   
   132  126  131 1   
   133  132  133 1   
   134  132  137 1   
   135  133  134 1   
   136  133  136 1   
   137  133  138 1   
   138  134  135 2   
   139  134  142 1   
   140  136  139 1   
   141  136  140 1   
   142  136  141 1   
   143  142  143 1   
   144  142  147 1   
   145  143  144 1   
   146  143  146 1   
   147  143  148 1   
   148  144  145 2   
   149  144  152 1   
   150  146  149 1   
   151  146  150 1   
   152  146  151 1   
   153  152  153 1   
   154  152  161 1   
   155  153  154 1   
   156  153  156 1   
   157  153  162 1   
   158  154  155 2   
   159  154  167 1   
   160  156  157 1   
   161  156  163 1   
   162  156  164 1   
   163  157  158 1   
   164  157  165 1   
   165  157  166 1   
   166  158  159 1   
   167  158  160 1   
   168  167  168 1   
   169  167  172 1   
   170  168  169 1   
   171  168  170 1   
   172  168  171 1   
   173  174  175 1   
   174  174  176 1   
   175  177  178 1   
   176  177  179 1   
@<TRIPOS>SUBSTRUCTURE
     1 MOL         1 TEMP              0 ****  ****    0 ROOT
