@<TRIPOS>MOLECULE
MOL
  176   174     1     0     0
SMALL
resp


@<TRIPOS>ATOM
      1 C1          0.7880    4.0750    6.3170 c3        1 MOL     -0.247702
      2 C2          0.6370    3.4990    4.9310 c         1 MOL      0.760444
      3 O1          1.6220    3.6630    4.2060 o         1 MOL     -0.561454
      4 H1          1.5150    4.8860    6.2960 hc        1 MOL      0.060363
      5 H2         -0.1740    4.4580    6.6580 hc        1 MOL      0.060363
      6 H3          1.1320    3.2960    6.9990 hc        1 MOL      0.060363
      7 N1         -0.5120    2.9260    4.4780 n         1 MOL     -0.680224
      8 C3         -0.7160    2.6900    3.1020 c3        1 MOL      0.062411
      9 C4         -0.7200    3.9510    2.2400 c         1 MOL      0.740267
     10 O2         -1.1630    5.0330    2.6800 o         1 MOL     -0.556527
     11 C5         -2.0530    1.8110    2.9950 c3        1 MOL     -0.394418
     12 C6         -2.4690    1.3700    1.6140 c         1 MOL      0.976129
     13 O3         -3.0860    0.3190    1.3550 o         1 MOL     -0.803501
     14 O4         -2.0850    2.0400    0.6320 o         1 MOL     -0.803501
     15 H4         -1.3260    2.8220    5.0690 hn        1 MOL      0.356038
     16 H5          0.1590    2.1280    2.7650 h1        1 MOL      0.067937
     17 H6         -2.8980    2.3860    3.3500 hc        1 MOL      0.099992
     18 H7         -1.9270    0.9050    3.5870 hc        1 MOL      0.099992
     19 N2         -0.0770    3.9170    1.0070 n         1 MOL     -0.554859
     20 C7          0.0300    4.9980    0.0180 c3        1 MOL     -0.187825
     21 C8         -1.2840    5.4160   -0.7060 c         1 MOL      0.660665
     22 O5         -1.4250    6.5700   -1.1130 o         1 MOL     -0.594276
     23 C9          1.0420    4.5230   -0.9940 c3        1 MOL      0.315295
     24 C10         1.5150    5.4830   -2.0130 c3        1 MOL     -0.491615
     25 C11         2.7560    5.0850   -2.8900 c3        1 MOL      0.221654
     26 C12         2.9460    6.1910   -3.9350 c3        1 MOL      0.050988
     27 N3          4.1080    5.9260   -4.8820 n4        1 MOL     -0.499518
     28 H8          0.0180    2.9430    0.7700 hn        1 MOL      0.246960
     29 H9          0.4470    5.9090    0.4550 h1        1 MOL      0.142064
     30 H10         0.6350    3.6310   -1.4750 hc        1 MOL      0.031238
     31 H11         1.9350    4.1800   -0.4760 hc        1 MOL      0.031238
     32 H12         1.8690    6.3790   -1.5110 hc        1 MOL      0.107531
     33 H13         0.6690    5.7070   -2.6560 hc        1 MOL      0.107531
     34 H14         2.5560    4.2120   -3.5100 hc        1 MOL     -0.009870
     35 H15         3.6740    4.9110   -2.3270 hc        1 MOL     -0.009870
     36 H16         3.2130    7.0110   -3.2680 hx        1 MOL      0.086508
     37 H17         2.0750    6.4880   -4.5290 hx        1 MOL      0.086508
     38 H18         4.8960    5.7040   -4.2890 hn        1 MOL      0.360777
     39 H19         3.8860    5.1450   -5.4750 hn        1 MOL      0.360777
     40 H20         4.2720    6.7540   -5.4490 hn        1 MOL      0.360777
     41 N4         -2.2640    4.5050   -0.8060 n         1 MOL     -0.499663
     42 C13        -3.5350    4.6660   -1.5520 c3        1 MOL      0.165961
     43 C14        -4.7920    4.3270   -0.7730 c         1 MOL      0.425300
     44 O6         -5.8860    4.7600   -1.0990 o         1 MOL     -0.508497
     45 C15        -3.4440    3.7890   -2.8350 c3        1 MOL     -0.403367
     46 C16        -2.9210    2.4020   -2.5220 c         1 MOL      0.862790
     47 O7         -3.5530    1.7270   -1.7260 o         1 MOL     -0.796829
     48 O8         -1.8790    1.9160   -3.0980 o         1 MOL     -0.796829
     49 H21        -2.1130    3.5580   -0.4920 hn        1 MOL      0.309284
     50 H22        -3.7650    5.6820   -1.8450 h1        1 MOL      0.089094
     51 H23        -2.7460    4.2900   -3.5150 hc        1 MOL      0.103006
     52 H24        -4.4380    3.7120   -3.2770 hc        1 MOL      0.103006
     53 N5         -4.5640    3.5540    0.3830 n         1 MOL     -0.169351
     54 C17        -5.6590    3.1640    1.1870 c3        1 MOL     -0.389248
     55 C18        -6.4640    2.0040    0.6140 c         1 MOL      0.653445
     56 O9         -7.5190    1.7290    1.1360 o         1 MOL     -0.579271
     57 H25        -3.6830    3.1160    0.5730 hn        1 MOL      0.131370
     58 H26        -6.2800    4.0470    1.2670 h1        1 MOL      0.159355
     59 H27        -5.1210    2.7870    2.0630 h1        1 MOL      0.159355
     60 N6         -6.1010    1.3260   -0.4840 n         1 MOL     -0.384863
     61 C19        -6.7240    0.1340   -0.9440 c3        1 MOL      0.046696
     62 C20        -6.7640   -1.0760    0.0130 c         1 MOL      0.378929
     63 O10        -7.5150   -2.0330   -0.1270 o         1 MOL     -0.543225
     64 C21        -6.1010   -0.3430   -2.2610 c3        1 MOL     -0.352274
     65 C22        -4.9980   -1.3760   -2.1360 c         1 MOL      0.633458
     66 N7         -5.1060   -2.5630   -2.7000 n         1 MOL     -0.725282
     67 O11        -4.0680   -1.0890   -1.4930 o         1 MOL     -0.554317
     68 H28        -5.2570    1.5990   -0.9700 hn        1 MOL      0.341677
     69 H29        -7.7620    0.3460   -1.2270 h1        1 MOL      0.104596
     70 H30        -5.8140    0.5610   -2.7910 hc        1 MOL      0.110091
     71 H31        -6.8350   -0.8830   -2.8690 hc        1 MOL      0.110091
     72 H32        -5.8690   -2.7500   -3.3320 hn        1 MOL      0.350613
     73 H33        -4.4450   -3.2950   -2.5110 hn        1 MOL      0.350613
     74 N8         -5.9320   -1.0620    1.0650 n         1 MOL     -0.040170
     75 C23        -5.9230   -1.9230    2.2800 c3        1 MOL     -0.398010
     76 C24        -4.8840   -3.0620    2.3010 c         1 MOL      0.637973
     77 O12        -5.0700   -3.8170    3.2010 o         1 MOL     -0.557511
     78 H34        -5.3340   -0.2460    1.0270 hn        1 MOL      0.164010
     79 H35        -6.9060   -2.4020    2.3250 h1        1 MOL      0.162200
     80 H36        -5.7990   -1.2520    3.1250 h1        1 MOL      0.162200
     81 N9         -3.9050   -3.0320    1.4140 n         1 MOL     -0.310510
     82 C25        -2.6890   -3.8320    1.6420 c3        1 MOL     -0.038767
     83 C26        -1.4260   -3.1480    0.9820 c         1 MOL      0.585762
     84 O13        -1.5610   -2.3570    0.0030 o         1 MOL     -0.574213
     85 C27        -2.8670   -5.3060    1.2350 c3        1 MOL     -0.034709
     86 C28        -3.4290   -5.5330   -0.1440 ca        1 MOL      0.039649
     87 C29        -2.5700   -5.5740   -1.2600 ca        1 MOL     -0.194205
     88 C30        -4.7880   -5.6370   -0.3100 ca        1 MOL     -0.194205
     89 C31        -3.0740   -5.7110   -2.5540 ca        1 MOL     -0.171726
     90 C32        -5.3100   -5.9190   -1.5810 ca        1 MOL     -0.171726
     91 C33        -4.3960   -6.0460   -2.6950 ca        1 MOL      0.234343
     92 O14        -4.8320   -6.3240   -3.9480 oh        1 MOL     -0.500315
     93 H37        -3.8390   -2.2780    0.7500 hn        1 MOL      0.239632
     94 H38        -2.5860   -3.8740    2.7190 h1        1 MOL      0.074444
     95 H39        -3.5700   -5.7290    1.9540 hc        1 MOL      0.045840
     96 H40        -2.0190   -5.9130    1.5530 hc        1 MOL      0.045840
     97 H41        -1.5120   -5.4660   -1.0780 ha        1 MOL      0.154726
     98 H42        -5.4380   -5.5530    0.5410 ha        1 MOL      0.154726
     99 H43        -2.3930   -5.8450   -3.3880 ha        1 MOL      0.125741
    100 H44        -6.3370   -6.2210   -1.7650 ha        1 MOL      0.125741
    101 H45        -5.6910   -6.7640   -3.9010 ho        1 MOL      0.380722
    102 N10        -0.2720   -3.3480    1.5540 n         1 MOL     -0.664087
    103 C34         0.9940   -2.6550    1.2460 c3        1 MOL      0.550433
    104 C35         2.0570   -3.6610    0.9930 c         1 MOL      0.374794
    105 O15         1.8850   -4.8720    1.1130 o         1 MOL     -0.553340
    106 C36         1.2930   -1.6370    2.4390 c3        1 MOL      0.005367
    107 C37         1.8280   -2.2200    3.7720 c3        1 MOL     -0.308688
    108 C38        -0.0160   -0.8270    2.8290 c3        1 MOL     -0.347407
    109 C39         3.3550   -2.6440    3.6510 c3        1 MOL      0.021570
    110 H46        -0.2870   -3.9520    2.3650 hn        1 MOL      0.337586
    111 H47         0.7860   -2.0770    0.3420 h1        1 MOL     -0.108374
    112 H48         1.9980   -0.8930    2.0660 hc        1 MOL      0.113971
    113 H49         1.2840   -3.1130    4.1040 hc        1 MOL      0.109756
    114 H50         1.8010   -1.4270    4.5210 hc        1 MOL      0.109756
    115 H51        -0.6790   -1.4720    3.3990 hc        1 MOL      0.090986
    116 H52         0.2770   -0.0180    3.4980 hc        1 MOL      0.090986
    117 H53        -0.6260   -0.4130    2.0300 hc        1 MOL      0.090986
    118 H54         3.6440   -2.9030    4.6660 hc        1 MOL     -0.012860
    119 H55         3.5390   -3.4920    2.9880 hc        1 MOL     -0.012860
    120 H56         3.9750   -1.8070    3.3260 hc        1 MOL     -0.012860
    121 N11         3.2250   -3.1490    0.6050 n         1 MOL     -0.085082
    122 C40         4.3330   -3.8770   -0.0260 c3        1 MOL      0.086036
    123 C41         5.6400   -3.1890    0.2730 c         1 MOL      0.334110
    124 O16         5.6420   -2.1230    0.9590 o         1 MOL     -0.413193
    125 C42         4.0360   -3.7570   -1.5260 c3        1 MOL     -0.265018
    126 O17         4.2770   -2.4090   -1.8610 oh        1 MOL     -0.478116
    127 H57         3.3690   -2.1540    0.7110 hn        1 MOL      0.124470
    128 H58         4.2800   -4.8930    0.3640 h1        1 MOL      0.082406
    129 H59         3.0160   -4.0780   -1.7170 h1        1 MOL      0.133408
    130 H60         4.7210   -4.4480   -2.0220 h1        1 MOL      0.133408
    131 H61         4.0330   -2.2480   -2.7810 ho        1 MOL      0.422629
    132 N12         6.7070   -3.7380   -0.2830 n         1 MOL     -0.348667
    133 C43         8.0820   -3.2690   -0.0420 c3        1 MOL      0.140182
    134 C44         8.2690   -1.8150   -0.5440 c         1 MOL      0.436227
    135 O18         8.8330   -1.0360    0.1540 o         1 MOL     -0.490355
    136 C45         9.0760   -4.2470   -0.7330 c3        1 MOL     -0.428836
    137 H62         6.6190   -4.6230   -0.7620 hn        1 MOL      0.269909
    138 H63         8.3940   -3.2430    1.0100 h1        1 MOL      0.102938
    139 H64        10.1040   -3.9080   -0.8900 hc        1 MOL      0.128332
    140 H65         9.2200   -5.0650   -0.0340 hc        1 MOL      0.128332
    141 H66         8.8220   -4.5290   -1.7570 hc        1 MOL      0.128332
    142 N13         7.6830   -1.4560   -1.7090 n         1 MOL     -0.402312
    143 C46         7.7460   -0.0760   -2.2370 c3        1 MOL      0.169237
    144 C47         6.8760    0.8750   -1.4630 c         1 MOL      0.334076
    145 O19         7.3410    1.9810   -1.2390 o         1 MOL     -0.524212
    146 C48         7.4020   -0.1710   -3.7430 c3        1 MOL     -0.222943
    147 H67         7.3090   -2.1800   -2.3180 hn        1 MOL      0.249177
    148 H68         8.7690    0.2930   -2.1750 h1        1 MOL      0.094083
    149 H69         6.4440   -0.6470   -3.9010 hc        1 MOL      0.057335
    150 H70         7.5130    0.8140   -4.2110 hc        1 MOL      0.057335
    151 H71         8.2140   -0.7110   -4.2140 hc        1 MOL      0.057335
    152 N14         5.7710    0.4490   -0.9480 n         1 MOL     -0.214729
    153 C49         5.0110    1.3090    0.0900 c3        1 MOL     -0.160700
    154 C50         5.7710    1.4500    1.3870 c         1 MOL      0.514537
    155 O20         5.6170    2.4880    2.0000 o         1 MOL     -0.548320
    156 C51         3.5760    0.7950    0.3630 c3        1 MOL      0.028527
    157 C52         2.7220    0.7930   -0.9130 c3        1 MOL      0.169983
    158 C53         1.3170    0.4050   -0.7400 c         1 MOL      0.600576
    159 O21         0.5570    0.8090    0.1450 o         1 MOL     -0.738968
    160 O22         0.7660   -0.3630   -1.6220 o         1 MOL     -0.738968
    161 H72         5.3010   -0.4150   -1.1480 hn        1 MOL      0.205790
    162 H73         4.9120    2.3370   -0.2580 h1        1 MOL      0.119393
    163 H74         3.1570    1.5320    1.0490 hc        1 MOL      0.021763
    164 H75         3.4570   -0.2170    0.7450 hc        1 MOL      0.021763
    165 H76         3.0710    0.0840   -1.6610 hc        1 MOL     -0.095905
    166 H77         2.7990    1.7920   -1.3410 hc        1 MOL     -0.095905
    167 N15         6.4520    0.4290    1.9140 n         1 MOL     -0.021417
    168 C54         7.2210    0.5410    3.0640 c3        1 MOL     -0.358054
    169 H78         7.8970    1.3910    2.9660 h1        1 MOL      0.119659
    170 H79         6.5700    0.6920    3.9240 h1        1 MOL      0.119659
    171 H80         7.8020   -0.3700    3.2030 h1        1 MOL      0.119659
    172 H81         6.3700   -0.4470    1.4130 hn        1 MOL      0.136913
    173 Ca1        -1.6940   -0.0060   -1.0010 Ca        1 MOL      1.787043
    174 O23        -1.4710   -1.3120   -3.3550 oh        1 MOL     -0.877234
    175 H82        -0.7360   -0.9540   -3.8520 ho        1 MOL      0.422906
    176 H83        -2.0610   -1.6540   -4.0280 ho        1 MOL      0.422906
@<TRIPOS>BOND
     1    1    2 1   
     2    1    4 1   
     3    1    5 1   
     4    1    6 1   
     5    2    3 2   
     6    2    7 1   
     7    7    8 1   
     8    7   15 1   
     9    8    9 1   
    10    8   11 1   
    11    8   16 1   
    12    9   10 2   
    13    9   19 1   
    14   11   12 1   
    15   11   17 1   
    16   11   18 1   
    17   12   13 1   
    18   12   14 1   
    19   19   20 1   
    20   19   28 1   
    21   20   21 1   
    22   20   23 1   
    23   20   29 1   
    24   21   22 2   
    25   21   41 1   
    26   23   24 1   
    27   23   30 1   
    28   23   31 1   
    29   24   25 1   
    30   24   32 1   
    31   24   33 1   
    32   25   26 1   
    33   25   34 1   
    34   25   35 1   
    35   26   27 1   
    36   26   36 1   
    37   26   37 1   
    38   27   38 1   
    39   27   39 1   
    40   27   40 1   
    41   41   42 1   
    42   41   49 1   
    43   42   43 1   
    44   42   45 1   
    45   42   50 1   
    46   43   44 2   
    47   43   53 1   
    48   45   46 1   
    49   45   51 1   
    50   45   52 1   
    51   46   47 1   
    52   46   48 1   
    53   53   54 1   
    54   53   57 1   
    55   54   55 1   
    56   54   58 1   
    57   54   59 1   
    58   55   56 2   
    59   55   60 1   
    60   60   61 1   
    61   60   68 1   
    62   61   62 1   
    63   61   64 1   
    64   61   69 1   
    65   62   63 2   
    66   62   74 1   
    67   64   65 1   
    68   64   70 1   
    69   64   71 1   
    70   65   66 1   
    71   65   67 2   
    72   66   72 1   
    73   66   73 1   
    74   74   75 1   
    75   74   78 1   
    76   75   76 1   
    77   75   79 1   
    78   75   80 1   
    79   76   77 2   
    80   76   81 1   
    81   81   82 1   
    82   81   93 1   
    83   82   83 1   
    84   82   85 1   
    85   82   94 1   
    86   83   84 2   
    87   83  102 1   
    88   85   86 1   
    89   85   95 1   
    90   85   96 1   
    91   86   87 ar  
    92   86   88 ar  
    93   87   89 ar  
    94   87   97 1   
    95   88   90 ar  
    96   88   98 1   
    97   89   91 ar  
    98   89   99 1   
    99   90   91 ar  
   100   90  100 1   
   101   91   92 1   
   102   92  101 1   
   103  102  103 1   
   104  102  110 1   
   105  103  104 1   
   106  103  106 1   
   107  103  111 1   
   108  104  105 2   
   109  104  121 1   
   110  106  107 1   
   111  106  108 1   
   112  106  112 1   
   113  107  109 1   
   114  107  113 1   
   115  107  114 1   
   116  108  115 1   
   117  108  116 1   
   118  108  117 1   
   119  109  118 1   
   120  109  119 1   
   121  109  120 1   
   122  121  122 1   
   123  121  127 1   
   124  122  123 1   
   125  122  125 1   
   126  122  128 1   
   127  123  124 2   
   128  123  132 1   
   129  125  126 1   
   130  125  129 1   
   131  125  130 1   
   132  126  131 1   
   133  132  133 1   
   134  132  137 1   
   135  133  134 1   
   136  133  136 1   
   137  133  138 1   
   138  134  135 2   
   139  134  142 1   
   140  136  139 1   
   141  136  140 1   
   142  136  141 1   
   143  142  143 1   
   144  142  147 1   
   145  143  144 1   
   146  143  146 1   
   147  143  148 1   
   148  144  145 2   
   149  144  152 1   
   150  146  149 1   
   151  146  150 1   
   152  146  151 1   
   153  152  153 1   
   154  152  161 1   
   155  153  154 1   
   156  153  156 1   
   157  153  162 1   
   158  154  155 2   
   159  154  167 1   
   160  156  157 1   
   161  156  163 1   
   162  156  164 1   
   163  157  158 1   
   164  157  165 1   
   165  157  166 1   
   166  158  159 1   
   167  158  160 1   
   168  167  168 1   
   169  167  172 1   
   170  168  169 1   
   171  168  170 1   
   172  168  171 1   
   173  174  175 1   
   174  174  176 1   
@<TRIPOS>SUBSTRUCTURE
     1 MOL         1 TEMP              0 ****  ****    0 ROOT
