@<TRIPOS>MOLECULE
MOL
  186   183     1     0     0
SMALL
resp


@<TRIPOS>ATOM
      1 C1          1.2900   -2.5150    6.3930 c3        1 MOL     -0.225830
      2 C2          1.3560   -2.4760    4.8530 c         1 MOL      0.643879
      3 O1          0.3980   -2.7820    4.1660 o         1 MOL     -0.557574
      4 H1          2.1720   -3.0250    6.7820 hc        1 MOL      0.052647
      5 H2          1.2600   -1.4970    6.7820 hc        1 MOL      0.052647
      6 H3          0.3940   -3.0510    6.7060 hc        1 MOL      0.052647
      7 N1          2.5320   -2.1720    4.2760 n         1 MOL     -0.488721
      8 C3          2.8700   -2.0490    2.8760 c3        1 MOL      0.035420
      9 C4          3.1590   -3.4690    2.4270 c         1 MOL      0.476765
     10 O2          4.1770   -4.0880    2.8310 o         1 MOL     -0.567465
     11 C5          4.1620   -1.1670    2.7630 c3        1 MOL     -0.067324
     12 C6          4.5090   -0.6150    1.3540 c         1 MOL      0.684651
     13 O3          4.0120   -1.1660    0.3460 o         1 MOL     -0.645107
     14 O4          5.4040    0.2400    1.3310 o         1 MOL     -0.645107
     15 H4          3.2240   -1.8850    4.9490 hn        1 MOL      0.271554
     16 H5          2.0280   -1.6200    2.3370 h1        1 MOL      0.038593
     17 H6          5.0470   -1.5850    3.2380 hc        1 MOL      0.017933
     18 H7          3.9640   -0.3140    3.4120 hc        1 MOL      0.017933
     19 N2          2.3480   -3.9770    1.5250 n         1 MOL     -0.191144
     20 C7          2.5260   -5.2710    0.9090 c3        1 MOL     -0.320278
     21 C8          3.6350   -5.2430   -0.2310 c         1 MOL      0.699219
     22 O5          4.4290   -6.1900   -0.3930 o         1 MOL     -0.608730
     23 C9          1.2440   -5.8090    0.3390 c3        1 MOL      0.399276
     24 C10         0.3680   -6.0790    1.5830 c3        1 MOL      0.101929
     25 C11         1.4530   -7.0940   -0.4700 c3        1 MOL     -0.281107
     26 C12        -1.0810   -6.4310    1.2550 c3        1 MOL     -0.095961
     27 H8          1.6180   -3.3770    1.1780 hn        1 MOL      0.194708
     28 H9          2.8770   -6.0990    1.5280 h1        1 MOL      0.094469
     29 H10         0.8280   -4.9930   -0.2550 hc        1 MOL     -0.073384
     30 H11         0.3240   -5.1230    2.1130 hc        1 MOL     -0.028098
     31 H12         0.7370   -6.9210    2.1740 hc        1 MOL     -0.028098
     32 H13         0.5620   -7.4650   -0.9730 hc        1 MOL      0.050128
     33 H14         2.0540   -6.8630   -1.3430 hc        1 MOL      0.050128
     34 H15         1.9400   -7.8830    0.0980 hc        1 MOL      0.050128
     35 H16        -1.6190   -6.2510    2.1840 hc        1 MOL      0.002438
     36 H17        -1.5420   -5.8430    0.4620 hc        1 MOL      0.002438
     37 H18        -1.1170   -7.4770    0.9340 hc        1 MOL      0.002438
     38 N3          3.8700   -4.0680   -0.8660 n         1 MOL     -0.484817
     39 C13         4.7240   -4.1080   -2.0690 c3        1 MOL     -0.025283
     40 C14         5.9660   -3.1970   -2.1000 c         1 MOL      0.520488
     41 O6          6.6960   -3.0820   -3.0900 o         1 MOL     -0.542382
     42 C15         3.8420   -3.8420   -3.3190 c3        1 MOL     -0.221406
     43 C16         3.1550   -2.4740   -3.2820 c         1 MOL      0.759820
     44 O7          3.5090   -1.4650   -2.5760 o         1 MOL     -0.682805
     45 O8          2.2080   -2.4190   -4.0770 o         1 MOL     -0.682805
     46 H19         3.3610   -3.2260   -0.6660 hn        1 MOL      0.300051
     47 H20         5.1840   -5.0920   -2.1590 h1        1 MOL      0.110008
     48 H21         3.0670   -4.6060   -3.3910 hc        1 MOL      0.062056
     49 H22         4.6140   -3.8980   -4.0880 hc        1 MOL      0.062056
     50 N4          6.2980   -2.5310   -0.9870 n         1 MOL     -0.362625
     51 C17         7.5490   -1.7680   -0.6970 c3        1 MOL     -0.232755
     52 C18         7.7710   -0.4650   -1.4910 c         1 MOL      0.522224
     53 O9          8.9180   -0.1700   -1.7060 o         1 MOL     -0.582186
     54 H23         5.5220   -2.3030   -0.3770 hn        1 MOL      0.254357
     55 H24         8.4160   -2.3980   -0.9060 h1        1 MOL      0.136633
     56 H25         7.6130   -1.5400    0.3650 h1        1 MOL      0.136633
     57 N5          6.7290    0.3290   -1.8850 n         1 MOL     -0.137563
     58 C19         6.9710    1.6940   -2.2610 c3        1 MOL      0.074905
     59 C20         7.1440    2.6430   -1.0130 c         1 MOL      0.338968
     60 O10         7.5380    3.8030   -1.1560 o         1 MOL     -0.561324
     61 C21         5.8950    2.2050   -3.1480 c3        1 MOL     -0.356958
     62 C22         4.4920    2.3020   -2.5720 c         1 MOL      0.784444
     63 O11         3.7020    3.0160   -3.1840 o         1 MOL     -0.687884
     64 O12         4.2130    1.7910   -1.4240 o         1 MOL     -0.687884
     65 H26         5.8170    0.0520   -1.5370 hn        1 MOL      0.015211
     66 H27         7.9420    1.7200   -2.7650 h1        1 MOL      0.075601
     67 H28         5.8560    1.5580   -4.0270 hc        1 MOL      0.094461
     68 H29         6.0910    3.2510   -3.3440 hc        1 MOL      0.094461
     69 N6          6.7280    2.2020    0.1340 n         1 MOL     -0.043253
     70 C23         6.8510    3.0200    1.3380 c3        1 MOL     -0.227364
     71 C24         5.6480    3.9270    1.6140 c         1 MOL      0.669047
     72 O13         5.8060    4.8810    2.3730 o         1 MOL     -0.617689
     73 H30         6.2550    1.3160    0.2200 hn        1 MOL      0.152758
     74 H31         7.7050    3.7090    1.2730 h1        1 MOL      0.084389
     75 H32         6.9540    2.3260    2.1680 h1        1 MOL      0.084389
     76 N7          4.5190    3.6920    0.9660 n         1 MOL     -0.461928
     77 C25         3.2170    4.1470    1.3260 c3        1 MOL      0.045021
     78 C26         2.1800    3.0520    1.4130 c         1 MOL      0.609046
     79 O14         2.3220    1.9350    0.8840 o         1 MOL     -0.674760
     80 C27         2.7960    5.2360    0.3580 c3        1 MOL     -0.040973
     81 C28         3.5110    6.5920    0.7310 c3        1 MOL     -0.214219
     82 C29         2.9450    7.7800   -0.0800 c         1 MOL      0.645049
     83 N8          3.1260    7.8140   -1.3590 n         1 MOL     -0.794918
     84 O15         2.3120    8.6620    0.4960 o         1 MOL     -0.597167
     85 H33         4.4780    2.8870    0.3510 hn        1 MOL      0.339066
     86 H34         3.2370    4.4760    2.3690 h1        1 MOL      0.043136
     87 H35         1.7390    5.4710    0.4890 hc        1 MOL      0.059359
     88 H36         2.8570    4.9560   -0.6910 hc        1 MOL      0.059359
     89 H37         4.5760    6.4990    0.5320 hc        1 MOL      0.084817
     90 H38         3.2820    6.6690    1.7870 hc        1 MOL      0.084817
     91 H39         3.5700    7.0900   -1.9170 hn        1 MOL      0.364424
     92 H40         2.7720    8.6380   -1.8310 hn        1 MOL      0.364424
     93 N9          1.0540    3.3140    2.0730 n         1 MOL     -0.450103
     94 C30        -0.0610    2.3530    2.2860 c3        1 MOL      0.220980
     95 C31        -1.2120    2.9300    1.4250 c         1 MOL      0.153280
     96 O16        -1.6220    4.1050    1.4970 o         1 MOL     -0.504074
     97 C32        -0.4360    2.2470    3.7650 c3        1 MOL      0.120804
     98 C33        -1.8540    1.6730    4.0410 c3        1 MOL     -0.282046
     99 C34         0.5270    1.4380    4.6450 c3        1 MOL     -0.282046
    100 H41         1.0290    4.2320    2.4780 hn        1 MOL      0.262435
    101 H42         0.1590    1.3560    1.8880 h1        1 MOL      0.087791
    102 H43        -0.2850    3.2310    4.2110 hc        1 MOL      0.006023
    103 H44        -2.6550    2.3240    3.6800 hc        1 MOL      0.062792
    104 H45        -2.1170    0.7020    3.6280 hc        1 MOL      0.062792
    105 H46        -2.0190    1.6230    5.1240 hc        1 MOL      0.062792
    106 H47         0.0890    1.2630    5.6220 hc        1 MOL      0.062792
    107 H48         0.9060    0.5610    4.1270 hc        1 MOL      0.062792
    108 H49         1.4680    1.9810    4.7530 hc        1 MOL      0.062792
    109 N10        -1.6640    2.1060    0.4620 n         1 MOL      0.019273
    110 C35        -2.7970    2.4040   -0.4130 c3        1 MOL     -0.000357
    111 C36        -4.1590    1.9720    0.1350 c         1 MOL      0.434812
    112 O17        -4.3010    1.1900    1.0750 o         1 MOL     -0.345901
    113 C37        -2.5540    1.6910   -1.7450 c3        1 MOL     -0.232768
    114 C38        -3.5700    1.9410   -2.8330 c         1 MOL      0.666375
    115 N11        -3.4310    2.9700   -3.6540 n         1 MOL     -0.797575
    116 O18        -4.5080    1.1870   -3.0640 o         1 MOL     -0.484544
    117 H50        -1.0170    1.3920    0.1490 hn        1 MOL      0.251418
    118 H51        -2.9800    3.4530   -0.6630 h1        1 MOL      0.037849
    119 H52        -2.5190    0.6160   -1.6380 hc        1 MOL      0.078778
    120 H53        -1.5590    1.9870   -2.0860 hc        1 MOL      0.078778
    121 H54        -2.7240    3.6860   -3.5660 hn        1 MOL      0.360067
    122 H55        -4.0640    3.0180   -4.4430 hn        1 MOL      0.360067
    123 N12        -5.3060    2.4240   -0.3590 n         1 MOL     -0.420081
    124 C39        -6.6640    1.9150    0.0450 c3        1 MOL      0.028665
    125 C40        -6.7980    0.4120   -0.0310 c         1 MOL      0.642689
    126 O19        -7.2790   -0.1930    0.9050 o         1 MOL     -0.549831
    127 C41        -7.7540    2.4330   -0.9260 c3        1 MOL     -0.105763
    128 C42        -9.1470    2.0130   -0.4790 ca        1 MOL     -0.189246
    129 C43        -9.6320    2.2970    0.8320 ca        1 MOL      0.022815
    130 C44        -9.9470    1.2550   -1.3530 ca        1 MOL      0.022815
    131 C45       -10.9530    2.0830    1.1160 ca        1 MOL     -0.394103
    132 C46       -11.2870    0.9580   -1.0240 ca        1 MOL     -0.394103
    133 C47       -11.8050    1.4010    0.2460 ca        1 MOL      0.484464
    134 O20       -13.0780    1.2380    0.5630 oh        1 MOL     -0.546243
    135 H56        -5.3350    3.2440   -0.9450 hn        1 MOL      0.239294
    136 H57        -6.7780    2.2500    1.0750 h1        1 MOL      0.070834
    137 H58        -7.4360    2.0060   -1.8880 hc        1 MOL      0.072029
    138 H59        -7.7720    3.5110   -1.0890 hc        1 MOL      0.072029
    139 H60        -9.0040    2.7430    1.5830 ha        1 MOL      0.105121
    140 H61        -9.5280    1.0370   -2.3240 ha        1 MOL      0.105121
    141 H62       -11.2450    2.4630    2.0890 ha        1 MOL      0.158191
    142 H63       -11.8800    0.4210   -1.7390 ha        1 MOL      0.158191
    143 H64       -13.6260    0.8940   -0.1460 ho        1 MOL      0.383425
    144 N13        -6.2670   -0.2700   -1.0600 n         1 MOL     -0.294042
    145 C48        -6.2700   -1.7300   -1.1630 c3        1 MOL     -0.005268
    146 C49        -5.5050   -2.3960   -0.0410 c         1 MOL      0.331229
    147 O21        -6.0150   -3.3960    0.4690 o         1 MOL     -0.515077
    148 C50        -5.7060   -2.1860   -2.4750 c3        1 MOL      0.001587
    149 C51        -6.5630   -1.5820   -3.6850 c3        1 MOL     -0.213813
    150 C52        -6.1210   -2.1900   -5.0080 c         1 MOL      0.734437
    151 O22        -5.0670   -1.8700   -5.5420 o         1 MOL     -0.749603
    152 O23        -6.9110   -2.9850   -5.5640 o         1 MOL     -0.749603
    153 H65        -5.8420    0.2490   -1.8150 hn        1 MOL      0.120149
    154 H66        -7.3050   -2.0420   -1.0690 h1        1 MOL      0.086291
    155 H67        -5.7140   -3.2820   -2.5050 hc        1 MOL      0.039291
    156 H68        -4.7140   -1.7590   -2.5730 hc        1 MOL      0.039291
    157 H69        -6.4080   -0.5040   -3.8010 hc        1 MOL      0.017748
    158 H70        -7.6210   -1.7570   -3.4960 hc        1 MOL      0.017748
    159 N14        -4.3960   -1.8100    0.3380 n         1 MOL     -0.253595
    160 C53        -3.5200   -2.1830    1.4960 c3        1 MOL     -0.019357
    161 C54        -4.1580   -1.9170    2.7750 c         1 MOL      0.471654
    162 O24        -4.0450   -2.7300    3.6400 o         1 MOL     -0.588773
    163 C55        -2.1150   -1.5770    1.4010 c3        1 MOL      0.226303
    164 C56        -1.2900   -2.2680    0.3030 c3        1 MOL     -0.076304
    165 C57         0.0360   -1.5030    0.0770 c         1 MOL      0.688143
    166 O25         1.1410   -2.0660   -0.2110 o         1 MOL     -0.711983
    167 O26         0.0090   -0.2330    0.1190 o         1 MOL     -0.711983
    168 H71        -4.0800   -1.0520   -0.2620 hn        1 MOL      0.230026
    169 H72        -3.2210   -3.2280    1.4630 h1        1 MOL      0.075441
    170 H73        -1.6040   -1.8130    2.3400 hc        1 MOL     -0.051114
    171 H74        -2.1890   -0.4950    1.2760 hc        1 MOL     -0.051114
    172 H75        -1.8310   -2.2560   -0.6550 hc        1 MOL      0.012242
    173 H76        -1.1830   -3.3260    0.5370 hc        1 MOL      0.012242
    174 N15        -4.8560   -0.8030    2.9480 n         1 MOL      0.072742
    175 C58        -5.6870   -0.4630    4.1470 c3        1 MOL     -0.376708
    176 H77        -5.0520   -0.4410    5.0330 h1        1 MOL      0.118478
    177 H78        -6.1460    0.5150    4.0060 h1        1 MOL      0.118478
    178 H79        -6.4650   -1.2160    4.2750 h1        1 MOL      0.118478
    179 H80        -4.8150   -0.1870    2.1390 hn        1 MOL     -0.034067
    180 Ca1         2.3570    0.0840   -1.0240 Ca        1 MOL      1.714029
    181 O27         1.3330    2.3890   -2.0400 oh        1 MOL     -0.977316
    182 H81         0.7340    2.3890   -2.7890 ho        1 MOL      0.432513
    183 H82         2.1260    2.7970   -2.3760 ho        1 MOL      0.432513
    184 O28         0.9510   -0.3020   -3.1710 oh        1 MOL     -0.977316
    185 H83         1.4350   -0.9930   -3.6270 ho        1 MOL      0.432513
    186 H84         0.1560   -0.1800   -3.6880 ho        1 MOL      0.432513
@<TRIPOS>BOND
     1    1    2 1   
     2    1    4 1   
     3    1    5 1   
     4    1    6 1   
     5    2    3 2   
     6    2    7 1   
     7    7    8 1   
     8    7   15 1   
     9    8    9 1   
    10    8   11 1   
    11    8   16 1   
    12    9   10 2   
    13    9   19 1   
    14   11   12 1   
    15   11   17 1   
    16   11   18 1   
    17   12   13 1   
    18   12   14 1   
    19   19   20 1   
    20   19   27 1   
    21   20   21 1   
    22   20   23 1   
    23   20   28 1   
    24   21   22 2   
    25   21   38 1   
    26   23   24 1   
    27   23   25 1   
    28   23   29 1   
    29   24   26 1   
    30   24   30 1   
    31   24   31 1   
    32   25   32 1   
    33   25   33 1   
    34   25   34 1   
    35   26   35 1   
    36   26   36 1   
    37   26   37 1   
    38   38   39 1   
    39   38   46 1   
    40   39   40 1   
    41   39   42 1   
    42   39   47 1   
    43   40   41 2   
    44   40   50 1   
    45   42   43 1   
    46   42   48 1   
    47   42   49 1   
    48   43   44 1   
    49   43   45 1   
    50   50   51 1   
    51   50   54 1   
    52   51   52 1   
    53   51   55 1   
    54   51   56 1   
    55   52   53 2   
    56   52   57 1   
    57   57   58 1   
    58   57   65 1   
    59   58   59 1   
    60   58   61 1   
    61   58   66 1   
    62   59   60 2   
    63   59   69 1   
    64   61   62 1   
    65   61   67 1   
    66   61   68 1   
    67   62   63 1   
    68   62   64 1   
    69   69   70 1   
    70   69   73 1   
    71   70   71 1   
    72   70   74 1   
    73   70   75 1   
    74   71   72 2   
    75   71   76 1   
    76   76   77 1   
    77   76   85 1   
    78   77   78 1   
    79   77   80 1   
    80   77   86 1   
    81   78   79 2   
    82   78   93 1   
    83   80   81 1   
    84   80   87 1   
    85   80   88 1   
    86   81   82 1   
    87   81   89 1   
    88   81   90 1   
    89   82   83 1   
    90   82   84 2   
    91   83   91 1   
    92   83   92 1   
    93   93   94 1   
    94   93  100 1   
    95   94   95 1   
    96   94   97 1   
    97   94  101 1   
    98   95   96 2   
    99   95  109 1   
   100   97   98 1   
   101   97   99 1   
   102   97  102 1   
   103   98  103 1   
   104   98  104 1   
   105   98  105 1   
   106   99  106 1   
   107   99  107 1   
   108   99  108 1   
   109  109  110 1   
   110  109  117 1   
   111  110  111 1   
   112  110  113 1   
   113  110  118 1   
   114  111  112 2   
   115  111  123 1   
   116  113  114 1   
   117  113  119 1   
   118  113  120 1   
   119  114  115 1   
   120  114  116 2   
   121  115  121 1   
   122  115  122 1   
   123  123  124 1   
   124  123  135 1   
   125  124  125 1   
   126  124  127 1   
   127  124  136 1   
   128  125  126 2   
   129  125  144 1   
   130  127  128 1   
   131  127  137 1   
   132  127  138 1   
   133  128  129 ar  
   134  128  130 ar  
   135  129  131 ar  
   136  129  139 1   
   137  130  132 ar  
   138  130  140 1   
   139  131  133 ar  
   140  131  141 1   
   141  132  133 ar  
   142  132  142 1   
   143  133  134 1   
   144  134  143 1   
   145  144  145 1   
   146  144  153 1   
   147  145  146 1   
   148  145  148 1   
   149  145  154 1   
   150  146  147 2   
   151  146  159 1   
   152  148  149 1   
   153  148  155 1   
   154  148  156 1   
   155  149  150 1   
   156  149  157 1   
   157  149  158 1   
   158  150  151 1   
   159  150  152 1   
   160  159  160 1   
   161  159  168 1   
   162  160  161 1   
   163  160  163 1   
   164  160  169 1   
   165  161  162 2   
   166  161  174 1   
   167  163  164 1   
   168  163  170 1   
   169  163  171 1   
   170  164  165 1   
   171  164  172 1   
   172  164  173 1   
   173  165  166 1   
   174  165  167 1   
   175  174  175 1   
   176  174  179 1   
   177  175  176 1   
   178  175  177 1   
   179  175  178 1   
   180  181  182 1   
   181  181  183 1   
   182  184  185 1   
   183  184  186 1   
@<TRIPOS>SUBSTRUCTURE
     1 MOL         1 TEMP              0 ****  ****    0 ROOT
