@<TRIPOS>MOLECULE
MOL
  175   173     1     0     0
SMALL
resp


@<TRIPOS>ATOM
      1 C1          0.0850    4.6930    5.4560 c3        1 MOL     -0.324873
      2 C2         -0.2670    4.5600    3.9900 c         1 MOL      0.735790
      3 O1          0.5100    5.0270    3.1590 o         1 MOL     -0.552733
      4 H1          0.9000    5.4080    5.5700 hc        1 MOL      0.068919
      5 H2         -0.7860    5.0440    6.0090 hc        1 MOL      0.068919
      6 H3          0.3980    3.7240    5.8450 hc        1 MOL      0.068919
      7 N1         -1.3990    3.9200    3.7270 n         1 MOL     -0.619552
      8 C3         -1.6500    3.3950    2.4160 c3        1 MOL      0.181638
      9 C4         -2.0360    4.5330    1.3980 c         1 MOL      0.411896
     10 O2         -2.5850    5.5910    1.7340 o         1 MOL     -0.533800
     11 C5         -2.7880    2.4550    2.4880 c3        1 MOL     -0.216900
     12 C6         -2.7700    1.4070    1.3230 c         1 MOL      0.656108
     13 O3         -2.5060    0.1570    1.4890 o         1 MOL     -0.708773
     14 O4         -2.9410    1.7970    0.1680 o         1 MOL     -0.708773
     15 H4         -2.0840    3.8680    4.4600 hn        1 MOL      0.329125
     16 H5         -0.7530    2.9420    1.9950 h1        1 MOL      0.077324
     17 H6         -3.7280    3.0140    2.5200 hc        1 MOL      0.055184
     18 H7         -2.7120    1.9220    3.4360 hc        1 MOL      0.055184
     19 N2         -1.6070    4.3280    0.1220 n         1 MOL     -0.460207
     20 C7         -1.8390    5.2900   -0.9670 c3        1 MOL      0.393479
     21 C8         -3.1290    5.0750   -1.7450 c         1 MOL      0.432570
     22 O5         -3.6530    5.9720   -2.4070 o         1 MOL     -0.578416
     23 C9         -0.6350    5.4240   -1.9700 c3        1 MOL     -0.310106
     24 H8         -1.1450    3.4640   -0.1160 hn        1 MOL      0.274946
     25 H9         -2.0110    6.2920   -0.5760 h1        1 MOL      0.002190
     26 H10         0.1670    5.9180   -1.4090 hc        1 MOL      0.070498
     27 H11        -0.3260    4.3940   -2.1550 hc        1 MOL      0.070498
     28 H12        -0.9180    6.0130   -2.8460 hc        1 MOL      0.070498
     29 N3         -3.6970    3.8450   -1.5860 n         1 MOL     -0.515387
     30 C10        -4.9070    3.3650   -2.2370 c3        1 MOL      0.436602
     31 C11        -6.0440    2.7600   -1.3340 c         1 MOL      0.137087
     32 O6         -7.2180    3.0450   -1.6000 o         1 MOL     -0.520558
     33 C12        -4.5010    2.3060   -3.2290 c3        1 MOL     -0.158819
     34 C13        -3.6280    1.2420   -2.6350 c         1 MOL      0.709398
     35 O7         -2.4570    1.1910   -2.9300 o         1 MOL     -0.728962
     36 O8         -4.1120    0.3370   -1.9140 o         1 MOL     -0.728962
     37 H13        -3.0880    3.2110   -1.1000 hn        1 MOL      0.325242
     38 H14        -5.3380    4.1450   -2.8700 h1        1 MOL      0.009728
     39 H15        -4.1090    2.8330   -4.0990 hc        1 MOL      0.007525
     40 H16        -5.4300    1.8630   -3.5750 hc        1 MOL      0.007525
     41 N4         -5.6710    2.1740   -0.2520 n         1 MOL     -0.004558
     42 C14        -6.5190    2.0150    0.9190 c3        1 MOL     -0.146007
     43 C15        -7.1680    0.6300    0.9100 c         1 MOL      0.443955
     44 O9         -8.0390    0.3760    1.7700 o         1 MOL     -0.592356
     45 H17        -4.7090    1.9860    0.0180 hn        1 MOL      0.086131
     46 H18        -7.3280    2.7200    1.1220 h1        1 MOL      0.112462
     47 H19        -5.8310    2.1210    1.7600 h1        1 MOL      0.112462
     48 N5         -6.8560   -0.3020    0.0140 n         1 MOL     -0.094459
     49 C16        -7.6920   -1.4160   -0.3790 c3        1 MOL     -0.113268
     50 C17        -7.5780   -2.7160    0.4220 c         1 MOL      0.405467
     51 O10        -8.3770   -3.7280    0.2860 o         1 MOL     -0.532833
     52 C18        -7.5270   -1.7780   -1.8230 c3        1 MOL     -0.242748
     53 C19        -8.1080   -0.6950   -2.7430 c         1 MOL      0.623212
     54 N6         -7.1990   -0.2360   -3.5650 n         1 MOL     -0.650455
     55 O11        -9.2620   -0.4650   -2.8220 o         1 MOL     -0.543085
     56 H20        -6.1350   -0.1490   -0.6850 hn        1 MOL      0.228787
     57 H21        -8.6560   -0.9990   -0.1160 h1        1 MOL      0.131397
     58 H22        -7.9840   -2.7210   -2.1080 hc        1 MOL      0.085405
     59 H23        -6.4860   -1.9080   -2.1200 hc        1 MOL      0.085405
     60 H24        -6.2490   -0.5780   -3.5490 hn        1 MOL      0.309963
     61 H25        -7.5990    0.1520   -4.4000 hn        1 MOL      0.309963
     62 N7         -6.5780   -2.7370    1.3380 n         1 MOL     -0.131948
     63 C20        -6.3020   -3.7950    2.2370 c3        1 MOL     -0.114318
     64 C21        -5.0050   -4.5410    2.0660 c         1 MOL      0.601493
     65 O12        -4.9430   -5.6060    2.6040 o         1 MOL     -0.597080
     66 H26        -6.0250   -1.9250    1.5370 hn        1 MOL      0.188843
     67 H27        -7.1470   -4.4580    2.0800 h1        1 MOL      0.067189
     68 H28        -6.3710   -3.4000    3.2500 h1        1 MOL      0.067189
     69 N8         -3.9910   -3.9920    1.4190 n         1 MOL     -0.334403
     70 C22        -2.6290   -4.5570    1.2810 c3        1 MOL     -0.200934
     71 C23        -1.3950   -3.5260    1.2440 c         1 MOL      0.703918
     72 O13        -1.4990   -2.4460    0.6140 o         1 MOL     -0.661042
     73 C24        -2.5240   -5.4390   -0.0370 c3        1 MOL      0.526281
     74 C25        -3.4170   -6.6800   -0.0930 c3        1 MOL     -0.492372
     75 O14        -2.7500   -4.7030   -1.2030 oh        1 MOL     -0.649834
     76 H29        -4.2160   -3.1240    0.9510 hn        1 MOL      0.289881
     77 H30        -2.4390   -5.3000    2.0480 h1        1 MOL      0.090117
     78 H31        -1.4810   -5.7740   -0.0240 h1        1 MOL     -0.066236
     79 H32        -1.9620   -4.8030   -1.7310 ho        1 MOL      0.414935
     80 H33        -4.4430   -6.4260    0.1480 hc        1 MOL      0.126503
     81 H34        -3.4370   -7.0230   -1.1260 hc        1 MOL      0.126503
     82 H35        -3.0110   -7.4840    0.5280 hc        1 MOL      0.126503
     83 N9         -0.2300   -3.8160    1.8820 n         1 MOL     -0.537960
     84 C26         0.9260   -2.9100    1.8230 c3        1 MOL      0.101424
     85 C27         1.8540   -3.1190    0.6340 c         1 MOL      0.471724
     86 O15         2.2770   -4.2700    0.4160 o         1 MOL     -0.604677
     87 C28         1.6650   -2.9000    3.1740 c3        1 MOL      0.002259
     88 C29         0.7760   -1.9450    4.0580 c3        1 MOL      0.016429
     89 C30         3.1030   -2.3790    3.1790 c3        1 MOL     -0.175249
     90 C31         0.9040   -0.4760    3.9120 c3        1 MOL     -0.122839
     91 H36        -0.1450   -4.6290    2.4630 hn        1 MOL      0.296064
     92 H37         0.5410   -1.8960    1.7000 h1        1 MOL      0.195390
     93 H38         1.5130   -3.8530    3.6890 hc        1 MOL      0.018150
     94 H39         1.0870   -2.1050    5.0950 hc        1 MOL     -0.013395
     95 H40        -0.2490   -2.2840    3.9680 hc        1 MOL     -0.013395
     96 H41         3.3290   -2.2280    4.2330 hc        1 MOL      0.042355
     97 H42         3.7880   -3.1850    2.8890 hc        1 MOL      0.042355
     98 H43         3.2550   -1.4960    2.5630 hc        1 MOL      0.042355
     99 H44         1.0890   -0.1580    2.8850 hc        1 MOL      0.034658
    100 H45        -0.0560   -0.0280    4.1820 hc        1 MOL      0.034658
    101 H46         1.6510   -0.0300    4.5540 hc        1 MOL      0.034658
    102 N10         2.1320   -2.1460   -0.1590 n         1 MOL     -0.308665
    103 C32         3.1340   -2.2250   -1.2750 c3        1 MOL      0.244571
    104 C33         4.4690   -1.7080   -0.7050 c         1 MOL      0.327557
    105 O16         4.5600   -0.8330    0.1390 o         1 MOL     -0.184789
    106 C34         2.7520   -1.3730   -2.4880 c3        1 MOL     -0.211410
    107 C35         1.2720   -1.5240   -2.8520 c         1 MOL      0.716229
    108 O17         0.8760   -2.6410   -3.2220 o         1 MOL     -0.707446
    109 O18         0.5000   -0.5340   -2.7490 o         1 MOL     -0.707446
    110 H47         1.6980   -1.2410   -0.0400 hn        1 MOL      0.078052
    111 H48         3.3630   -3.2260   -1.6230 h1        1 MOL      0.031401
    112 H49         3.3470   -1.7240   -3.3270 hc        1 MOL      0.037743
    113 H50         2.9720   -0.3230   -2.3080 hc        1 MOL      0.037743
    114 N11         5.5580   -2.0940   -1.4030 n         1 MOL     -0.673535
    115 C36         6.9010   -1.6820   -0.9780 c3        1 MOL      0.546526
    116 C37         7.1540   -0.2100   -0.7470 c         1 MOL      0.303871
    117 O19         7.7180    0.1250    0.2630 o         1 MOL     -0.507200
    118 C38         7.8780   -2.2670   -1.9630 c3        1 MOL     -0.312210
    119 C39         9.3330   -2.0210   -1.5520 ca        1 MOL      0.128657
    120 C40         9.8520   -2.5590   -0.3370 ca        1 MOL     -0.206545
    121 C41        10.1500   -1.1280   -2.2820 ca        1 MOL     -0.206545
    122 C42        11.2220   -2.3910    0.0340 ca        1 MOL     -0.017320
    123 C43        11.4870   -0.9020   -1.8980 ca        1 MOL     -0.017320
    124 C44        12.0460   -1.6020   -0.7820 ca        1 MOL     -0.238515
    125 H51         5.4710   -2.7250   -2.1830 hn        1 MOL      0.327631
    126 H52         7.0620   -2.2420   -0.0530 h1        1 MOL      0.008666
    127 H53         7.5650   -1.7930   -2.8930 hc        1 MOL      0.071069
    128 H54         7.7830   -3.3580   -2.0130 hc        1 MOL      0.071069
    129 H55         9.2450   -3.2160    0.2620 ha        1 MOL      0.119598
    130 H56         9.8170   -0.7280   -3.2210 ha        1 MOL      0.119598
    131 H57        11.7180   -2.9020    0.8470 ha        1 MOL      0.091294
    132 H58        12.0550   -0.2220   -2.5040 ha        1 MOL      0.091294
    133 H59        13.0560   -1.3820   -0.4820 ha        1 MOL      0.132897
    134 N12         6.6760    0.6780   -1.6510 n         1 MOL     -0.066848
    135 C45         6.8670    2.1060   -1.4650 c3        1 MOL      0.038161
    136 C46         6.0620    2.7170   -0.3610 c         1 MOL      0.347786
    137 O20         6.2830    3.8670   -0.1100 o         1 MOL     -0.524623
    138 C47         6.5720    2.7870   -2.8570 c3        1 MOL     -0.154272
    139 C48         6.2920    1.6160   -3.8750 c3        1 MOL     -0.108207
    140 C49         5.8600    0.5770   -2.8990 c3        1 MOL     -0.147557
    141 H60         7.9270    2.2580   -1.2670 h1        1 MOL      0.081574
    142 H61         5.6630    3.3650   -2.6870 hc        1 MOL      0.084211
    143 H62         7.3990    3.4660   -3.0620 hc        1 MOL      0.084211
    144 H63         5.5350    1.9350   -4.5960 hc        1 MOL      0.058676
    145 H64         7.1730    1.2150   -4.3800 hc        1 MOL      0.058676
    146 H65         4.8040    0.7250   -2.6490 h1        1 MOL      0.110351
    147 H66         6.0190   -0.4220   -3.3110 h1        1 MOL      0.110351
    148 N13         5.1870    1.9630    0.3520 n         1 MOL     -0.033090
    149 C50         4.4330    2.3360    1.5660 c3        1 MOL     -0.028758
    150 C51         5.1450    1.6970    2.7890 c         1 MOL      0.463436
    151 O21         5.2760    2.2640    3.8660 o         1 MOL     -0.550321
    152 C52         3.0100    1.8050    1.5320 c3        1 MOL      0.088440
    153 C53         2.2540    2.0330    0.2420 c3        1 MOL     -0.172457
    154 C54         0.8520    1.3520    0.2570 c         1 MOL      0.724101
    155 O22         0.6310    0.1600    0.5410 o         1 MOL     -0.709151
    156 O23        -0.0550    1.9770   -0.3170 o         1 MOL     -0.709151
    157 H67         4.9410    1.0840   -0.0730 hn        1 MOL     -0.026575
    158 H68         4.5260    3.3800    1.8580 h1        1 MOL      0.075070
    159 H69         2.4550    2.2980    2.3360 hc        1 MOL     -0.010754
    160 H70         3.0660    0.7570    1.8000 hc        1 MOL     -0.010754
    161 H71         2.8670    1.5910   -0.5470 hc        1 MOL      0.064627
    162 H72         2.2280    3.1100    0.0950 hc        1 MOL      0.064627
    163 N14         5.6560    0.4530    2.6830 n         1 MOL     -0.075454
    164 C55         6.6170   -0.1660    3.5710 c3        1 MOL     -0.333211
    165 H73         7.5890    0.3120    3.4440 h1        1 MOL      0.114391
    166 H74         6.2880   -0.0490    4.6040 h1        1 MOL      0.114391
    167 H75         6.7020   -1.2270    3.3340 h1        1 MOL      0.114391
    168 H76         5.4520   -0.0850    1.8630 hn        1 MOL      0.046394
    169 Ca1        -1.5100   -0.3470   -0.8500 Ca        1 MOL      1.783496
    170 O24        -4.2470   -1.9420   -0.5230 oh        1 MOL     -0.898231
    171 H77        -3.6720   -2.5990   -0.9130 ho        1 MOL      0.423201
    172 H78        -4.3280   -1.2690   -1.1880 ho        1 MOL      0.423201
    173 O25        -2.3930   -1.8360   -2.8770 oh        1 MOL     -0.898231
    174 H79        -3.0690   -1.4510   -3.4370 ho        1 MOL      0.423201
    175 H80        -1.6630   -2.0150   -3.4720 ho        1 MOL      0.423201
@<TRIPOS>BOND
     1    1    2 1   
     2    1    4 1   
     3    1    5 1   
     4    1    6 1   
     5    2    3 2   
     6    2    7 1   
     7    7    8 1   
     8    7   15 1   
     9    8    9 1   
    10    8   11 1   
    11    8   16 1   
    12    9   10 2   
    13    9   19 1   
    14   11   12 1   
    15   11   17 1   
    16   11   18 1   
    17   12   13 1   
    18   12   14 1   
    19   19   20 1   
    20   19   24 1   
    21   20   21 1   
    22   20   23 1   
    23   20   25 1   
    24   21   22 2   
    25   21   29 1   
    26   23   26 1   
    27   23   27 1   
    28   23   28 1   
    29   29   30 1   
    30   29   37 1   
    31   30   31 1   
    32   30   33 1   
    33   30   38 1   
    34   31   32 2   
    35   31   41 1   
    36   33   34 1   
    37   33   39 1   
    38   33   40 1   
    39   34   35 1   
    40   34   36 1   
    41   41   42 1   
    42   41   45 1   
    43   42   43 1   
    44   42   46 1   
    45   42   47 1   
    46   43   44 2   
    47   43   48 1   
    48   48   49 1   
    49   48   56 1   
    50   49   50 1   
    51   49   52 1   
    52   49   57 1   
    53   50   51 2   
    54   50   62 1   
    55   52   53 1   
    56   52   58 1   
    57   52   59 1   
    58   53   54 1   
    59   53   55 2   
    60   54   60 1   
    61   54   61 1   
    62   62   63 1   
    63   62   66 1   
    64   63   64 1   
    65   63   67 1   
    66   63   68 1   
    67   64   65 2   
    68   64   69 1   
    69   69   70 1   
    70   69   76 1   
    71   70   71 1   
    72   70   73 1   
    73   70   77 1   
    74   71   72 2   
    75   71   83 1   
    76   73   74 1   
    77   73   75 1   
    78   73   78 1   
    79   74   80 1   
    80   74   81 1   
    81   74   82 1   
    82   75   79 1   
    83   83   84 1   
    84   83   91 1   
    85   84   85 1   
    86   84   87 1   
    87   84   92 1   
    88   85   86 2   
    89   85  102 1   
    90   87   88 1   
    91   87   89 1   
    92   87   93 1   
    93   88   90 1   
    94   88   94 1   
    95   88   95 1   
    96   89   96 1   
    97   89   97 1   
    98   89   98 1   
    99   90   99 1   
   100   90  100 1   
   101   90  101 1   
   102  102  103 1   
   103  102  110 1   
   104  103  104 1   
   105  103  106 1   
   106  103  111 1   
   107  104  105 2   
   108  104  114 1   
   109  106  107 1   
   110  106  112 1   
   111  106  113 1   
   112  107  108 1   
   113  107  109 1   
   114  114  115 1   
   115  114  125 1   
   116  115  116 1   
   117  115  118 1   
   118  115  126 1   
   119  116  117 2   
   120  116  134 1   
   121  118  119 1   
   122  118  127 1   
   123  118  128 1   
   124  119  120 ar  
   125  119  121 ar  
   126  120  122 ar  
   127  120  129 1   
   128  121  123 ar  
   129  121  130 1   
   130  122  124 ar  
   131  122  131 1   
   132  123  124 ar  
   133  123  132 1   
   134  124  133 1   
   135  134  135 1   
   136  134  140 1   
   137  135  136 1   
   138  135  138 1   
   139  135  141 1   
   140  136  137 2   
   141  136  148 1   
   142  138  139 1   
   143  138  142 1   
   144  138  143 1   
   145  139  140 1   
   146  139  144 1   
   147  139  145 1   
   148  140  146 1   
   149  140  147 1   
   150  148  149 1   
   151  148  157 1   
   152  149  150 1   
   153  149  152 1   
   154  149  158 1   
   155  150  151 2   
   156  150  163 1   
   157  152  153 1   
   158  152  159 1   
   159  152  160 1   
   160  153  154 1   
   161  153  161 1   
   162  153  162 1   
   163  154  155 1   
   164  154  156 1   
   165  163  164 1   
   166  163  168 1   
   167  164  165 1   
   168  164  166 1   
   169  164  167 1   
   170  170  171 1   
   171  170  172 1   
   172  173  174 1   
   173  173  175 1   
@<TRIPOS>SUBSTRUCTURE
     1 MOL         1 TEMP              0 ****  ****    0 ROOT
