@<TRIPOS>MOLECULE
MOL
  189   185     1     0     0
SMALL
resp


@<TRIPOS>ATOM
      1 C1          0.0460    1.8960    5.7020 c3        1 MOL     -0.354257
      2 C2         -0.4460    1.9170    4.2600 c         1 MOL      0.638965
      3 O1          0.2020    2.4800    3.3640 o         1 MOL     -0.591210
      4 H1          0.1760    2.9190    6.0560 hc        1 MOL      0.101327
      5 H2         -0.6860    1.3860    6.3280 hc        1 MOL      0.101327
      6 H3          0.9990    1.3690    5.7540 hc        1 MOL      0.101327
      7 N1         -1.6690    1.3780    3.9770 n         1 MOL     -0.561707
      8 C3         -2.3950    1.2010    2.6710 c3        1 MOL      0.276874
      9 C4         -2.9670    2.4970    2.1410 c         1 MOL      0.381200
     10 O2         -4.2330    2.6490    2.0930 o         1 MOL     -0.450108
     11 C5         -3.4370    0.0920    2.8210 c3        1 MOL     -0.234177
     12 C6         -4.0660   -0.2510    1.4170 c         1 MOL      0.687716
     13 O3         -3.4350   -0.0150    0.3580 o         1 MOL     -0.641588
     14 O4         -5.1610   -0.8060    1.3780 o         1 MOL     -0.641588
     15 H4         -2.1050    1.1610    4.8660 hn        1 MOL      0.287325
     16 H5         -1.6510    0.9040    1.9340 h1        1 MOL      0.035987
     17 H6         -4.2240    0.4670    3.4670 hc        1 MOL      0.053195
     18 H7         -2.9930   -0.8210    3.2120 hc        1 MOL      0.053195
     19 N2         -2.0370    3.4040    1.7360 n         1 MOL     -0.330062
     20 C7         -2.3190    4.8350    1.4050 c3        1 MOL     -0.169756
     21 C8         -3.2250    4.9590    0.1590 c         1 MOL      0.570077
     22 O5         -4.0420    5.9010    0.1230 o         1 MOL     -0.591264
     23 C9         -0.9790    5.5880    1.1870 c3        1 MOL     -0.060516
     24 C10        -0.9910    7.0880    0.8010 c3        1 MOL     -0.264012
     25 C11        -1.5440    8.0710    1.8110 c3        1 MOL      0.166515
     26 C12        -2.0720    9.3090    1.2200 c3        1 MOL     -0.004752
     27 N3         -2.8310   10.2220    2.1600 n4        1 MOL     -0.273909
     28 H8         -1.0770    3.1000    1.7610 hn        1 MOL      0.313919
     29 H9         -2.8870    5.2470    2.2360 h1        1 MOL      0.119689
     30 H10        -0.4670    4.9540    0.4560 hc        1 MOL      0.107015
     31 H11        -0.3240    5.4900    2.0630 hc        1 MOL      0.107015
     32 H12        -1.6720    7.2270   -0.0370 hc        1 MOL      0.079984
     33 H13         0.0190    7.3020    0.4570 hc        1 MOL      0.079984
     34 H14        -0.7260    8.2770    2.5090 hc        1 MOL     -0.008914
     35 H15        -2.3100    7.5920    2.4250 hc        1 MOL     -0.008914
     36 H16        -2.7080    9.1290    0.3540 hx        1 MOL      0.080656
     37 H17        -1.1860    9.8930    0.9690 hx        1 MOL      0.080656
     38 H18        -2.4280   10.3040    3.0820 hn        1 MOL      0.304546
     39 H19        -2.9310   11.1740    1.8390 hn        1 MOL      0.304546
     40 H20        -3.8020    9.9260    2.1570 hn        1 MOL      0.304546
     41 N4         -3.1770    4.0170   -0.7770 n         1 MOL     -0.271847
     42 C13        -4.0450    4.0870   -2.0070 c3        1 MOL      0.001046
     43 C14        -5.3400    3.1720   -1.9050 c         1 MOL      0.372654
     44 O6         -6.2190    3.2510   -2.7520 o         1 MOL     -0.485434
     45 C15        -3.2360    3.8000   -3.2830 c3        1 MOL     -0.143261
     46 C16        -2.3170    2.5570   -3.1190 c         1 MOL      0.803845
     47 O7         -2.7450    1.5760   -2.4540 o         1 MOL     -0.731687
     48 O8         -1.2510    2.5530   -3.7730 o         1 MOL     -0.731687
     49 H21        -2.6940    3.1620   -0.5440 hn        1 MOL      0.172360
     50 H22        -4.4210    5.1000   -2.1430 h1        1 MOL      0.083438
     51 H23        -2.5750    4.6550   -3.4280 hc        1 MOL      0.031419
     52 H24        -3.9280    3.7100   -4.1220 hc        1 MOL      0.031419
     53 N5         -5.4770    2.3880   -0.7710 n         1 MOL      0.056941
     54 C17        -6.7740    1.7730   -0.3280 c3        1 MOL     -0.172548
     55 C18        -7.3140    0.5870   -1.1890 c         1 MOL      0.575114
     56 O9         -8.2510    0.6410   -1.9850 o         1 MOL     -0.570678
     57 H25        -4.7790    2.3900   -0.0440 hn        1 MOL     -0.015853
     58 H26        -7.5120    2.5710   -0.3270 h1        1 MOL      0.080573
     59 H27        -6.7550    1.4420    0.7100 h1        1 MOL      0.080573
     60 N6         -6.7030   -0.5910   -1.0770 n         1 MOL     -0.363344
     61 C19        -6.9330   -1.8430   -1.8860 c3        1 MOL      0.066527
     62 C20        -6.8290   -3.1100   -1.0770 c         1 MOL      0.390815
     63 O10        -6.8520   -4.2020   -1.6550 o         1 MOL     -0.514431
     64 C21        -5.9690   -1.9680   -3.0970 c3        1 MOL     -0.179772
     65 C22        -4.4260   -2.0090   -2.7850 c         1 MOL      0.742908
     66 O11        -4.0530   -2.3180   -1.6020 o         1 MOL     -0.739857
     67 O12        -3.5870   -1.7180   -3.6690 o         1 MOL     -0.739857
     68 H28        -5.9740   -0.6210   -0.3870 hn        1 MOL      0.071000
     69 H29        -7.9820   -1.8050   -2.1790 h1        1 MOL      0.092677
     70 H30        -6.1890   -1.1250   -3.7460 hc        1 MOL      0.068530
     71 H31        -6.2320   -2.8570   -3.6710 hc        1 MOL      0.068530
     72 N7         -6.6120   -3.0710    0.2300 n         1 MOL     -0.223427
     73 C23        -6.4940   -4.2460    1.0590 c3        1 MOL     -0.296883
     74 C24        -5.1480   -4.9620    0.8640 c         1 MOL      0.587333
     75 O13        -5.0100   -6.1690    1.1230 o         1 MOL     -0.543191
     76 H32        -6.5700   -2.2290    0.7810 hn        1 MOL      0.276545
     77 H33        -7.2940   -4.9010    0.7240 h1        1 MOL      0.126288
     78 H34        -6.6490   -3.8890    2.0770 h1        1 MOL      0.126288
     79 N8         -4.0970   -4.1820    0.4840 n         1 MOL     -0.279576
     80 C25        -2.7550   -4.7750    0.3870 c3        1 MOL     -0.439574
     81 C26        -1.6650   -3.7910    0.6570 c         1 MOL      0.899872
     82 O14        -1.7720   -2.6550    0.2410 o         1 MOL     -0.678305
     83 C27        -2.4450   -5.4950   -0.9610 c3        1 MOL      0.573104
     84 C28        -2.8980   -6.9010   -1.1050 c3        1 MOL     -0.546471
     85 O15        -2.8610   -4.7820   -2.0220 oh        1 MOL     -0.594384
     86 H35        -4.1170   -3.1830    0.3500 hn        1 MOL      0.311280
     87 H36        -2.6340   -5.5230    1.1760 h1        1 MOL      0.131799
     88 H37        -1.3690   -5.5250   -1.1470 h1        1 MOL     -0.022672
     89 H38        -3.4400   -4.1380   -1.6160 ho        1 MOL      0.418114
     90 H39        -2.4350   -7.2980   -2.0060 hc        1 MOL      0.130166
     91 H40        -2.6530   -7.4760   -0.2120 hc        1 MOL      0.130166
     92 H41        -3.9880   -6.8620   -1.0990 hc        1 MOL      0.130166
     93 N9         -0.6100   -4.2510    1.3150 n         1 MOL     -0.811293
     94 C29         0.5740   -3.4430    1.7160 c3        1 MOL      0.053329
     95 C30         1.8490   -3.8840    1.0010 c         1 MOL      0.605611
     96 O16         2.2550   -5.0210    1.1230 o         1 MOL     -0.566369
     97 C31         0.7170   -3.3270    3.2140 c3        1 MOL      0.265952
     98 C32        -0.5490   -2.9130    4.0170 c3        1 MOL      0.171319
     99 C33         1.7880   -2.2780    3.6380 c3        1 MOL     -0.593963
    100 C34        -0.5490   -3.1230    5.5340 c3        1 MOL     -0.206942
    101 H42        -0.7040   -5.1170    1.8400 hn        1 MOL      0.343531
    102 H43         0.2550   -2.4220    1.4960 h1        1 MOL      0.117785
    103 H44         1.0570   -4.2810    3.6100 hc        1 MOL     -0.034271
    104 H45        -1.4450   -3.4740    3.7330 hc        1 MOL     -0.032022
    105 H46        -0.8620   -1.9160    3.7000 hc        1 MOL     -0.032022
    106 H47         2.7820   -2.6760    3.4170 hc        1 MOL      0.118997
    107 H48         1.6440   -1.3420    3.0990 hc        1 MOL      0.118997
    108 H49         1.7950   -2.0260    4.7000 hc        1 MOL      0.118997
    109 H50        -0.4790   -4.1850    5.7840 hc        1 MOL      0.042645
    110 H51         0.2480   -2.5380    5.9800 hc        1 MOL      0.042645
    111 H52        -1.4850   -2.7940    5.9790 hc        1 MOL      0.042645
    112 N10         2.4490   -2.9180    0.3390 n         1 MOL     -0.245706
    113 C35         3.6780   -3.1120   -0.4770 c3        1 MOL     -0.181152
    114 C36         4.9770   -2.6900    0.2290 c         1 MOL      0.375982
    115 O17         5.0180   -1.8750    1.1380 o         1 MOL     -0.361451
    116 C37         3.6300   -2.3780   -1.8210 c3        1 MOL      0.238835
    117 C38         2.6360   -2.8920   -2.8300 c3        1 MOL     -0.383828
    118 O18         3.3160   -1.0010   -1.5770 oh        1 MOL     -0.536295
    119 H53         1.9000   -2.0640    0.2550 hn        1 MOL      0.283100
    120 H54         3.6740   -4.1940   -0.6330 h1        1 MOL      0.088905
    121 H55         4.6070   -2.3500   -2.3210 h1        1 MOL      0.039036
    122 H56         2.4300   -0.9970   -1.2150 ho        1 MOL      0.337025
    123 H57         1.6350   -2.9060   -2.4250 hc        1 MOL      0.111812
    124 H58         2.6910   -2.2500   -3.7050 hc        1 MOL      0.111812
    125 H59         2.9070   -3.8850   -3.2020 hc        1 MOL      0.111812
    126 N11         6.0900   -3.1770   -0.3280 n         1 MOL     -0.207157
    127 C39         7.4210   -2.8220    0.2670 c3        1 MOL     -0.149999
    128 C40         7.6890   -1.2950    0.1680 c         1 MOL      0.353545
    129 O19         8.3310   -0.8150    1.1040 o         1 MOL     -0.503513
    130 C41         8.6910   -3.5880   -0.2730 c3        1 MOL      0.252230
    131 C42         8.6860   -5.0610    0.1460 c3        1 MOL     -0.327921
    132 O20         8.6910   -3.4930   -1.6840 oh        1 MOL     -0.648958
    133 H60         5.9900   -3.7770   -1.1350 hn        1 MOL      0.257018
    134 H61         7.4310   -2.9100    1.3500 h1        1 MOL      0.148158
    135 H62         9.6360   -3.1680    0.0560 h1        1 MOL      0.065345
    136 H63         9.5040   -3.9310   -1.9650 ho        1 MOL      0.419817
    137 H64         8.6920   -5.1480    1.2380 hc        1 MOL      0.092488
    138 H65         7.7120   -5.4640   -0.1210 hc        1 MOL      0.092488
    139 H66         9.6160   -5.5260   -0.1810 hc        1 MOL      0.092488
    140 N12         7.1050   -0.5820   -0.7900 n         1 MOL     -0.147182
    141 C43         7.2160    0.9060   -0.7970 c3        1 MOL     -0.027269
    142 C44         6.1790    1.7030    0.0040 c         1 MOL      0.358432
    143 O21         6.3710    2.8460    0.4390 o         1 MOL     -0.525866
    144 C45         7.3530    1.4030   -2.2750 c3        1 MOL     -0.085535
    145 C46         7.9270    2.8110   -2.4080 c3        1 MOL      0.174931
    146 C47         8.0310    3.3200   -3.7790 c3        1 MOL     -0.042462
    147 C48         8.7400    4.7360   -3.9550 c3        1 MOL      0.071336
    148 N13         8.7520    5.2920   -5.3470 n4        1 MOL     -0.395782
    149 H67         6.7110   -1.0790   -1.5760 hn        1 MOL      0.203955
    150 H68         8.1850    1.1170   -0.3380 h1        1 MOL      0.087908
    151 H69         6.3970    1.3060   -2.7990 hc        1 MOL      0.021680
    152 H70         8.0560    0.7320   -2.7590 hc        1 MOL      0.021680
    153 H71         8.9310    2.7200   -1.9850 hc        1 MOL     -0.016396
    154 H72         7.4240    3.5460   -1.7890 hc        1 MOL     -0.016396
    155 H73         7.0170    3.3580   -4.1910 hc        1 MOL      0.015175
    156 H74         8.6380    2.5900   -4.3090 hc        1 MOL      0.015175
    157 H75         9.6860    4.6690   -3.4160 hx        1 MOL      0.074202
    158 H76         8.0610    5.4110   -3.4230 hx        1 MOL      0.074202
    159 H77         7.7720    5.3110   -5.5770 hn        1 MOL      0.332254
    160 H78         9.0860    6.2380   -5.5100 hn        1 MOL      0.332254
    161 H79         9.2590    4.6660   -5.9560 hn        1 MOL      0.332254
    162 N14         5.0570    1.1130    0.2300 n         1 MOL     -0.034239
    163 C49         4.0960    1.6730    1.2630 c3        1 MOL     -0.221266
    164 C50         4.6860    1.5130    2.6500 c         1 MOL      0.515954
    165 O22         4.6430    2.4700    3.3800 o         1 MOL     -0.545544
    166 C51         2.7010    0.9990    1.1770 c3        1 MOL      0.039957
    167 C52         1.8790    1.4850   -0.0670 c3        1 MOL     -0.111307
    168 C53         0.6250    0.5470   -0.2610 c         1 MOL      0.767658
    169 O23         0.7010   -0.6830   -0.3440 o         1 MOL     -0.723348
    170 O24        -0.4890    1.1500   -0.2920 o         1 MOL     -0.723348
    171 H80         4.7910    0.2830   -0.2840 hn        1 MOL      0.139724
    172 H81         3.9590    2.7500    1.1350 h1        1 MOL      0.132757
    173 H82         2.0940    1.3510    2.0170 hc        1 MOL      0.025352
    174 H83         2.7710   -0.0800    1.0730 hc        1 MOL      0.025352
    175 H84         2.4580    1.3570   -0.9730 hc        1 MOL     -0.006521
    176 H85         1.5500    2.5210    0.0380 hc        1 MOL     -0.006521
    177 N15         5.3190    0.3660    2.9430 n         1 MOL     -0.161588
    178 C54         6.1790    0.1880    4.0900 c3        1 MOL     -0.245724
    179 H86         6.4250    1.1620    4.5140 h1        1 MOL      0.100105
    180 H87         5.6650   -0.4140    4.8400 h1        1 MOL      0.100105
    181 H88         7.0950   -0.3160    3.7840 h1        1 MOL      0.100105
    182 H89         5.2910   -0.3080    2.1850 hn        1 MOL      0.146646
    183 Ca1        -2.0010   -0.7280   -1.6010 Ca        1 MOL      1.740716
    184 O25        -0.8860   -2.8380   -2.9440 oh        1 MOL     -0.864374
    185 H90        -0.6980   -2.6980   -3.8800 ho        1 MOL      0.406520
    186 H91        -1.5820   -3.4900   -2.9370 ho        1 MOL      0.406520
    187 O26        -0.1250    0.1850   -3.4490 oh        1 MOL     -0.864374
    188 H92         0.5850   -0.1580   -3.9820 ho        1 MOL      0.406520
    189 H93        -0.2090    1.1000   -3.7230 ho        1 MOL      0.406520
@<TRIPOS>BOND
     1    1    2 1   
     2    1    4 1   
     3    1    5 1   
     4    1    6 1   
     5    2    3 2   
     6    2    7 1   
     7    7    8 1   
     8    7   15 1   
     9    8    9 1   
    10    8   11 1   
    11    8   16 1   
    12    9   10 2   
    13    9   19 1   
    14   11   12 1   
    15   11   17 1   
    16   11   18 1   
    17   12   13 1   
    18   12   14 1   
    19   19   20 1   
    20   19   28 1   
    21   20   21 1   
    22   20   23 1   
    23   20   29 1   
    24   21   22 2   
    25   21   41 1   
    26   23   24 1   
    27   23   30 1   
    28   23   31 1   
    29   24   25 1   
    30   24   32 1   
    31   24   33 1   
    32   25   26 1   
    33   25   34 1   
    34   25   35 1   
    35   26   27 1   
    36   26   36 1   
    37   26   37 1   
    38   27   38 1   
    39   27   39 1   
    40   27   40 1   
    41   41   42 1   
    42   41   49 1   
    43   42   43 1   
    44   42   45 1   
    45   42   50 1   
    46   43   44 2   
    47   43   53 1   
    48   45   46 1   
    49   45   51 1   
    50   45   52 1   
    51   46   47 1   
    52   46   48 1   
    53   53   54 1   
    54   53   57 1   
    55   54   55 1   
    56   54   58 1   
    57   54   59 1   
    58   55   56 2   
    59   55   60 1   
    60   60   61 1   
    61   60   68 1   
    62   61   62 1   
    63   61   64 1   
    64   61   69 1   
    65   62   63 2   
    66   62   72 1   
    67   64   65 1   
    68   64   70 1   
    69   64   71 1   
    70   65   66 1   
    71   65   67 1   
    72   72   73 1   
    73   72   76 1   
    74   73   74 1   
    75   73   77 1   
    76   73   78 1   
    77   74   75 2   
    78   74   79 1   
    79   79   80 1   
    80   79   86 1   
    81   80   81 1   
    82   80   83 1   
    83   80   87 1   
    84   81   82 2   
    85   81   93 1   
    86   83   84 1   
    87   83   85 1   
    88   83   88 1   
    89   84   90 1   
    90   84   91 1   
    91   84   92 1   
    92   85   89 1   
    93   93   94 1   
    94   93  101 1   
    95   94   95 1   
    96   94   97 1   
    97   94  102 1   
    98   95   96 2   
    99   95  112 1   
   100   97   98 1   
   101   97   99 1   
   102   97  103 1   
   103   98  100 1   
   104   98  104 1   
   105   98  105 1   
   106   99  106 1   
   107   99  107 1   
   108   99  108 1   
   109  100  109 1   
   110  100  110 1   
   111  100  111 1   
   112  112  113 1   
   113  112  119 1   
   114  113  114 1   
   115  113  116 1   
   116  113  120 1   
   117  114  115 2   
   118  114  126 1   
   119  116  117 1   
   120  116  118 1   
   121  116  121 1   
   122  117  123 1   
   123  117  124 1   
   124  117  125 1   
   125  118  122 1   
   126  126  127 1   
   127  126  133 1   
   128  127  128 1   
   129  127  130 1   
   130  127  134 1   
   131  128  129 2   
   132  128  140 1   
   133  130  131 1   
   134  130  132 1   
   135  130  135 1   
   136  131  137 1   
   137  131  138 1   
   138  131  139 1   
   139  132  136 1   
   140  140  141 1   
   141  140  149 1   
   142  141  142 1   
   143  141  144 1   
   144  141  150 1   
   145  142  143 2   
   146  142  162 1   
   147  144  145 1   
   148  144  151 1   
   149  144  152 1   
   150  145  146 1   
   151  145  153 1   
   152  145  154 1   
   153  146  147 1   
   154  146  155 1   
   155  146  156 1   
   156  147  148 1   
   157  147  157 1   
   158  147  158 1   
   159  148  159 1   
   160  148  160 1   
   161  148  161 1   
   162  162  163 1   
   163  162  171 1   
   164  163  164 1   
   165  163  166 1   
   166  163  172 1   
   167  164  165 2   
   168  164  177 1   
   169  166  167 1   
   170  166  173 1   
   171  166  174 1   
   172  167  168 1   
   173  167  175 1   
   174  167  176 1   
   175  168  169 1   
   176  168  170 1   
   177  177  178 1   
   178  177  182 1   
   179  178  179 1   
   180  178  180 1   
   181  178  181 1   
   182  184  185 1   
   183  184  186 1   
   184  187  188 1   
   185  187  189 1   
@<TRIPOS>SUBSTRUCTURE
     1 MOL         1 TEMP              0 ****  ****    0 ROOT
