@<TRIPOS>MOLECULE
MOL
  186   183     1     0     0
SMALL
resp


@<TRIPOS>ATOM
      1 C1          0.2300    4.4890   -4.4700 c3        1 MOL     -0.361273
      2 C2          0.7500    3.8110   -3.1830 c         1 MOL      0.612366
      3 O1         -0.0840    3.5590   -2.2890 o         1 MOL     -0.503930
      4 H1          0.9880    4.4160   -5.2510 hc        1 MOL      0.094485
      5 H2         -0.6810    3.9910   -4.8020 hc        1 MOL      0.094485
      6 H3          0.0180    5.5390   -4.2680 hc        1 MOL      0.094485
      7 N1          2.0580    3.3690   -3.1180 n         1 MOL     -0.441966
      8 C3          2.4770    2.5280   -2.0080 c3        1 MOL      0.004253
      9 C4          2.9550    3.4540   -0.8630 c         1 MOL      0.325076
     10 O2          4.0810    3.9970   -0.8420 o         1 MOL     -0.470209
     11 C5          3.6910    1.6390   -2.5340 c3        1 MOL     -0.126516
     12 C6          4.0230    0.5300   -1.5270 c         1 MOL      0.755024
     13 O3          3.0960   -0.0890   -0.9700 o         1 MOL     -0.734239
     14 O4          5.2250    0.3220   -1.2740 o         1 MOL     -0.734239
     15 H4          2.6370    3.4680   -3.9470 hn        1 MOL      0.297394
     16 H5          1.6480    1.9120   -1.6610 h1        1 MOL      0.071961
     17 H6          4.5800    2.2580   -2.6760 hc        1 MOL      0.048431
     18 H7          3.4520    1.0720   -3.4250 hc        1 MOL      0.048431
     19 N2          2.0340    3.6500    0.1350 n         1 MOL     -0.240355
     20 C7          2.0940    4.7510    1.1940 c3        1 MOL     -0.034244
     21 C8          2.9150    4.4030    2.4020 c         1 MOL      0.403647
     22 O5          3.5130    5.3410    2.9660 o         1 MOL     -0.531139
     23 C9          0.6180    5.1120    1.5990 c3        1 MOL     -0.039484
     24 C10        -0.2230    5.7170    0.4490 c3        1 MOL     -0.019712
     25 C11         0.4080    6.9040   -0.3380 c3        1 MOL     -0.142476
     26 C12        -0.6980    7.7380   -0.9710 c3        1 MOL     -0.069542
     27 N3         -0.0520    8.9230   -1.6030 n4        1 MOL     -0.098715
     28 H8          1.2440    3.0160    0.1170 hn        1 MOL      0.251040
     29 H9          2.5470    5.6450    0.7790 h1        1 MOL      0.082902
     30 H10         0.6020    5.8080    2.4360 hc        1 MOL      0.041106
     31 H11         0.1180    4.1810    1.8590 hc        1 MOL      0.041106
     32 H12        -1.2030    5.9520    0.8680 hc        1 MOL      0.074265
     33 H13        -0.3840    4.9470   -0.3040 hc        1 MOL      0.074265
     34 H14         1.2020    6.8210   -1.0750 hc        1 MOL      0.063449
     35 H15         0.8680    7.5500    0.4180 hc        1 MOL      0.063449
     36 H16        -1.3330    8.1460   -0.1880 hx        1 MOL      0.100685
     37 H17        -1.1720    7.1080   -1.7260 hx        1 MOL      0.100685
     38 H18         0.7080    9.2230   -1.0130 hn        1 MOL      0.259448
     39 H19         0.3830    8.7110   -2.4880 hn        1 MOL      0.259448
     40 H20        -0.6590    9.7180   -1.7740 hn        1 MOL      0.259448
     41 N4          2.9710    3.1470    2.7940 n         1 MOL     -0.255382
     42 C13         3.9660    2.6380    3.7130 c3        1 MOL      0.052284
     43 C14         5.3970    2.4330    3.1220 c         1 MOL      0.523557
     44 O6          6.3170    2.7630    3.8700 o         1 MOL     -0.553114
     45 C15         3.4390    1.3410    4.3790 c3        1 MOL     -0.328468
     46 C16         3.0100    0.2960    3.3670 c         1 MOL      0.930832
     47 O7          1.9640   -0.3140    3.6220 o         1 MOL     -0.812343
     48 O8          3.5280    0.0870    2.2880 o         1 MOL     -0.812343
     49 H21         2.5300    2.4290    2.2310 hn        1 MOL      0.199432
     50 H22         4.1510    3.3260    4.5440 h1        1 MOL      0.076117
     51 H23         2.6540    1.6390    5.0770 hc        1 MOL      0.089537
     52 H24         4.2360    0.8470    4.9220 hc        1 MOL      0.089537
     53 N5          5.5140    2.0810    1.8160 n         1 MOL     -0.319464
     54 C17         6.7640    1.6680    1.1720 c3        1 MOL     -0.250195
     55 C18         7.0360    0.1640    1.0480 c         1 MOL      0.611061
     56 O9          8.1710   -0.1760    0.6360 o         1 MOL     -0.628575
     57 H25         4.6830    1.8440    1.3010 hn        1 MOL      0.308450
     58 H26         7.5720    2.0320    1.8080 h1        1 MOL      0.136193
     59 H27         6.7570    2.2000    0.2180 h1        1 MOL      0.136193
     60 N6          6.1350   -0.7220    1.4470 n         1 MOL     -0.274272
     61 C19         6.4320   -2.1430    1.6170 c3        1 MOL     -0.012942
     62 C20         6.5290   -3.0560    0.3660 c         1 MOL      0.473253
     63 O10         6.8910   -4.2110    0.4780 o         1 MOL     -0.539761
     64 C21         5.4970   -2.6760    2.6540 c3        1 MOL     -0.206401
     65 C22         4.0410   -3.0390    2.2590 c         1 MOL      0.781068
     66 O11         3.2820   -3.5800    3.0790 o         1 MOL     -0.717862
     67 O12         3.6300   -2.8340    1.1370 o         1 MOL     -0.717862
     68 H28         5.2110   -0.3850    1.6500 hn        1 MOL      0.149371
     69 H29         7.4500   -2.2610    1.9920 h1        1 MOL      0.095377
     70 H30         5.4070   -1.9480    3.4590 hc        1 MOL      0.057018
     71 H31         5.9490   -3.5500    3.1280 hc        1 MOL      0.057018
     72 N7          6.3690   -2.4600   -0.8150 n         1 MOL     -0.249499
     73 C23         6.4530   -3.0800   -2.1480 c3        1 MOL     -0.253523
     74 C24         5.1170   -3.7450   -2.5010 c         1 MOL      0.609570
     75 O13         5.0620   -4.4290   -3.5280 o         1 MOL     -0.595748
     76 H32         6.1350   -1.4870   -0.6910 hn        1 MOL      0.341520
     77 H33         7.2540   -3.8010   -2.3000 h1        1 MOL      0.132294
     78 H34         6.5610   -2.1990   -2.7900 h1        1 MOL      0.132294
     79 N8          3.9650   -3.5200   -1.7880 n         1 MOL     -0.165563
     80 C25         2.6280   -4.1600   -2.1280 c3        1 MOL     -0.395303
     81 C26         1.4170   -3.3480   -1.9660 c         1 MOL      0.655995
     82 O14         1.1520   -2.9350   -0.8230 o         1 MOL     -0.700219
     83 C27         2.3420   -5.4530   -1.2660 c3        1 MOL      0.697344
     84 C28         3.2200   -6.6280   -1.7800 c3        1 MOL     -0.324884
     85 O15         2.5310   -5.1700    0.0910 oh        1 MOL     -0.793370
     86 H35         4.0740   -3.0260   -0.9140 hn        1 MOL      0.021501
     87 H36         2.7930   -4.5010   -3.1550 h1        1 MOL      0.142487
     88 H37         1.3380   -5.7920   -1.5250 h1        1 MOL     -0.098688
     89 H38         2.6820   -4.2360    0.2570 ho        1 MOL      0.634174
     90 H39         3.3400   -7.4720   -1.0920 hc        1 MOL      0.067173
     91 H40         2.8340   -6.9400   -2.7640 hc        1 MOL      0.067173
     92 H41         4.1890   -6.1830   -2.0150 hc        1 MOL      0.067173
     93 N9          0.5740   -3.1110   -2.9710 n         1 MOL     -0.466427
     94 C29        -0.4500   -2.0880   -2.8500 c3        1 MOL     -0.236228
     95 C30        -1.7270   -2.7210   -2.3100 c         1 MOL      0.662949
     96 O16        -2.3430   -3.5680   -2.9820 o         1 MOL     -0.582881
     97 C31        -0.6590   -1.4110   -4.1830 c3        1 MOL      0.522861
     98 C32         0.7250   -0.8470   -4.6960 c3        1 MOL     -0.039458
     99 C33        -1.7630   -0.3010   -4.1520 c3        1 MOL     -0.542299
    100 C34         0.5910   -0.0740   -6.0390 c3        1 MOL     -0.249964
    101 H42         0.7770   -3.4980   -3.8810 hn        1 MOL      0.285615
    102 H43        -0.1560   -1.3000   -2.1700 h1        1 MOL      0.012521
    103 H44        -1.1080   -2.1510   -4.8380 hc        1 MOL     -0.069310
    104 H45         1.4480   -1.6350   -4.8610 hc        1 MOL      0.032785
    105 H46         1.0690   -0.0970   -3.9880 hc        1 MOL      0.032785
    106 H47        -2.6910   -0.7260   -3.7740 hc        1 MOL      0.114698
    107 H48        -1.3470    0.5290   -3.5890 hc        1 MOL      0.114698
    108 H49        -1.8470   -0.0140   -5.2040 hc        1 MOL      0.114698
    109 H50        -0.0570   -0.5850   -6.7400 hc        1 MOL      0.056728
    110 H51         0.2900    0.9700   -5.8850 hc        1 MOL      0.056728
    111 H52         1.5400    0.0880   -6.5390 hc        1 MOL      0.056728
    112 N10        -2.1750   -2.2300   -1.1530 n         1 MOL     -0.209549
    113 C35        -3.5000   -2.6260   -0.5930 c3        1 MOL     -0.331260
    114 C36        -4.7230   -1.8910   -1.1510 c         1 MOL      0.390532
    115 O17        -4.6090   -0.7570   -1.7260 o         1 MOL     -0.384101
    116 C37        -3.4430   -2.5140    1.0010 c3        1 MOL      0.388589
    117 C38        -2.5150   -3.5400    1.5640 c3        1 MOL     -0.450405
    118 O18        -3.1770   -1.2890    1.5100 oh        1 MOL     -0.540277
    119 H53        -1.6620   -1.5380   -0.6300 hn        1 MOL      0.384588
    120 H54        -3.6290   -3.6780   -0.8530 h1        1 MOL      0.112625
    121 H55        -4.4600   -2.7080    1.3630 h1        1 MOL     -0.044919
    122 H56        -2.3140   -1.0970    1.1450 ho        1 MOL      0.347273
    123 H57        -1.5630   -3.4140    1.0570 hc        1 MOL      0.119799
    124 H58        -2.4750   -3.3300    2.6330 hc        1 MOL      0.119799
    125 H59        -2.9980   -4.5120    1.4990 hc        1 MOL      0.119799
    126 N11        -5.8970   -2.4850   -0.9760 n         1 MOL     -0.193018
    127 C39        -7.1890   -1.8060   -1.2250 c3        1 MOL     -0.325069
    128 C40        -7.3240   -0.4540   -0.4580 c         1 MOL      0.371375
    129 O19        -7.7180    0.5430   -1.0980 o         1 MOL     -0.453014
    130 C41        -8.3780   -2.6780   -0.8490 c3        1 MOL      0.386106
    131 C42        -8.7180   -3.8230   -1.8220 c3        1 MOL     -0.511321
    132 O20        -8.2310   -3.1440    0.5090 oh        1 MOL     -0.659449
    133 H60        -5.9130   -3.4170   -0.5770 hn        1 MOL      0.266467
    134 H61        -7.2200   -1.5250   -2.2790 h1        1 MOL      0.187765
    135 H62        -9.2920   -2.0780   -0.7440 h1        1 MOL      0.036975
    136 H63        -9.1000   -3.4120    0.7910 ho        1 MOL      0.405803
    137 H64        -7.9740   -4.6110   -1.7040 hc        1 MOL      0.150775
    138 H65        -9.7110   -4.1710   -1.5580 hc        1 MOL      0.150775
    139 H66        -8.7800   -3.4010   -2.8260 hc        1 MOL      0.150775
    140 N12        -7.0060   -0.4120    0.8280 n         1 MOL     -0.282026
    141 C43        -6.9330    0.8340    1.6640 c3        1 MOL     -0.093032
    142 C44        -6.0330    1.9280    0.9700 c         1 MOL      0.289301
    143 O21        -6.3960    3.1400    1.0490 o         1 MOL     -0.493609
    144 C45        -6.4230    0.4440    3.0560 c3        1 MOL     -0.042371
    145 C46        -7.2770   -0.5520    3.8390 c3        1 MOL      0.077744
    146 C47        -6.5420   -1.0490    5.0960 c3        1 MOL     -0.013949
    147 C48        -7.3920   -2.1120    5.7950 c3        1 MOL      0.050681
    148 N13        -6.5680   -2.8780    6.8110 n4        1 MOL     -0.337971
    149 H67        -6.7960   -1.2960    1.2650 hn        1 MOL      0.292829
    150 H68        -7.9380    1.2100    1.8360 h1        1 MOL      0.124844
    151 H69        -6.3980    1.3670    3.6400 hc        1 MOL      0.039273
    152 H70        -5.3860    0.1060    2.9190 hc        1 MOL      0.039273
    153 H71        -7.4840   -1.4320    3.2270 hc        1 MOL     -0.008518
    154 H72        -8.2080   -0.0710    4.1310 hc        1 MOL     -0.008518
    155 H73        -6.3660   -0.2010    5.7500 hc        1 MOL      0.026834
    156 H74        -5.5590   -1.4050    4.8120 hc        1 MOL      0.026834
    157 H75        -7.7030   -2.8260    5.0370 hx        1 MOL      0.075986
    158 H76        -8.3040   -1.6510    6.1850 hx        1 MOL      0.075986
    159 H77        -6.1670   -2.2500    7.4920 hn        1 MOL      0.325660
    160 H78        -7.1360   -3.5710    7.2810 hn        1 MOL      0.325660
    161 H79        -5.7600   -3.2910    6.3720 hn        1 MOL      0.325660
    162 N14        -4.9330    1.6210    0.3470 n         1 MOL      0.013038
    163 C49        -3.9250    2.5550   -0.3450 c3        1 MOL     -0.111290
    164 C50        -4.4680    3.0690   -1.6720 c         1 MOL      0.381340
    165 O22        -4.5850    4.3450   -1.7600 o         1 MOL     -0.559276
    166 C51        -2.5340    1.9490   -0.5540 c3        1 MOL      0.224663
    167 C52        -1.9050    1.7540    0.7670 c3        1 MOL     -0.060056
    168 C53        -0.6970    0.7810    0.8130 c         1 MOL      0.980096
    169 O23         0.4580    1.1950    1.0140 o         1 MOL     -0.860565
    170 O24        -0.8360   -0.4320    0.5980 o         1 MOL     -0.860565
    171 H80        -4.6700    0.6500    0.4260 hn        1 MOL      0.216885
    172 H81        -3.7430    3.4560    0.2410 h1        1 MOL      0.080800
    173 H82        -1.8970    2.5860   -1.1700 hc        1 MOL     -0.089607
    174 H83        -2.7030    0.9620   -0.9950 hc        1 MOL     -0.089607
    175 H84        -2.5730    1.2800    1.4830 hc        1 MOL     -0.057410
    176 H85        -1.7540    2.7580    1.1470 hc        1 MOL     -0.057410
    177 N15        -5.1060    2.2740   -2.5000 n         1 MOL     -0.080620
    178 C54        -5.9060    2.6520   -3.7050 c3        1 MOL     -0.160874
    179 H86        -5.2580    2.6670   -4.5820 h1        1 MOL      0.083098
    180 H87        -6.7030    1.9250   -3.8570 h1        1 MOL      0.083098
    181 H88        -6.3400    3.6410   -3.5590 h1        1 MOL      0.083098
    182 H89        -5.1130    1.2900   -2.2870 hn        1 MOL      0.135659
    183 Ca1         1.7580   -1.1500    1.0530 Ca        1 MOL      1.809429
    184 O25         0.7090   -3.6940    2.3550 oh        1 MOL     -0.925577
    185 H90         0.3890   -4.6000    2.3810 ho        1 MOL      0.418954
    186 H91         1.4830   -3.7010    2.9180 ho        1 MOL      0.418954
@<TRIPOS>BOND
     1    1    2 1   
     2    1    4 1   
     3    1    5 1   
     4    1    6 1   
     5    2    3 2   
     6    2    7 1   
     7    7    8 1   
     8    7   15 1   
     9    8    9 1   
    10    8   11 1   
    11    8   16 1   
    12    9   10 2   
    13    9   19 1   
    14   11   12 1   
    15   11   17 1   
    16   11   18 1   
    17   12   13 1   
    18   12   14 1   
    19   19   20 1   
    20   19   28 1   
    21   20   21 1   
    22   20   23 1   
    23   20   29 1   
    24   21   22 2   
    25   21   41 1   
    26   23   24 1   
    27   23   30 1   
    28   23   31 1   
    29   24   25 1   
    30   24   32 1   
    31   24   33 1   
    32   25   26 1   
    33   25   34 1   
    34   25   35 1   
    35   26   27 1   
    36   26   36 1   
    37   26   37 1   
    38   27   38 1   
    39   27   39 1   
    40   27   40 1   
    41   41   42 1   
    42   41   49 1   
    43   42   43 1   
    44   42   45 1   
    45   42   50 1   
    46   43   44 2   
    47   43   53 1   
    48   45   46 1   
    49   45   51 1   
    50   45   52 1   
    51   46   47 1   
    52   46   48 1   
    53   53   54 1   
    54   53   57 1   
    55   54   55 1   
    56   54   58 1   
    57   54   59 1   
    58   55   56 2   
    59   55   60 1   
    60   60   61 1   
    61   60   68 1   
    62   61   62 1   
    63   61   64 1   
    64   61   69 1   
    65   62   63 2   
    66   62   72 1   
    67   64   65 1   
    68   64   70 1   
    69   64   71 1   
    70   65   66 1   
    71   65   67 1   
    72   72   73 1   
    73   72   76 1   
    74   73   74 1   
    75   73   77 1   
    76   73   78 1   
    77   74   75 2   
    78   74   79 1   
    79   79   80 1   
    80   79   86 1   
    81   80   81 1   
    82   80   83 1   
    83   80   87 1   
    84   81   82 2   
    85   81   93 1   
    86   83   84 1   
    87   83   85 1   
    88   83   88 1   
    89   84   90 1   
    90   84   91 1   
    91   84   92 1   
    92   85   89 1   
    93   93   94 1   
    94   93  101 1   
    95   94   95 1   
    96   94   97 1   
    97   94  102 1   
    98   95   96 2   
    99   95  112 1   
   100   97   98 1   
   101   97   99 1   
   102   97  103 1   
   103   98  100 1   
   104   98  104 1   
   105   98  105 1   
   106   99  106 1   
   107   99  107 1   
   108   99  108 1   
   109  100  109 1   
   110  100  110 1   
   111  100  111 1   
   112  112  113 1   
   113  112  119 1   
   114  113  114 1   
   115  113  116 1   
   116  113  120 1   
   117  114  115 2   
   118  114  126 1   
   119  116  117 1   
   120  116  118 1   
   121  116  121 1   
   122  117  123 1   
   123  117  124 1   
   124  117  125 1   
   125  118  122 1   
   126  126  127 1   
   127  126  133 1   
   128  127  128 1   
   129  127  130 1   
   130  127  134 1   
   131  128  129 2   
   132  128  140 1   
   133  130  131 1   
   134  130  132 1   
   135  130  135 1   
   136  131  137 1   
   137  131  138 1   
   138  131  139 1   
   139  132  136 1   
   140  140  141 1   
   141  140  149 1   
   142  141  142 1   
   143  141  144 1   
   144  141  150 1   
   145  142  143 2   
   146  142  162 1   
   147  144  145 1   
   148  144  151 1   
   149  144  152 1   
   150  145  146 1   
   151  145  153 1   
   152  145  154 1   
   153  146  147 1   
   154  146  155 1   
   155  146  156 1   
   156  147  148 1   
   157  147  157 1   
   158  147  158 1   
   159  148  159 1   
   160  148  160 1   
   161  148  161 1   
   162  162  163 1   
   163  162  171 1   
   164  163  164 1   
   165  163  166 1   
   166  163  172 1   
   167  164  165 2   
   168  164  177 1   
   169  166  167 1   
   170  166  173 1   
   171  166  174 1   
   172  167  168 1   
   173  167  175 1   
   174  167  176 1   
   175  168  169 1   
   176  168  170 1   
   177  177  178 1   
   178  177  182 1   
   179  178  179 1   
   180  178  180 1   
   181  178  181 1   
   182  184  185 1   
   183  184  186 1   
@<TRIPOS>SUBSTRUCTURE
     1 MOL         1 TEMP              0 ****  ****    0 ROOT
