@<TRIPOS>MOLECULE
MOL
  189   185     1     0     0
SMALL
resp


@<TRIPOS>ATOM
      1 C1          0.2190    2.6420    5.3720 c3        1 MOL     -0.518545
      2 C2         -0.3120    2.2720    4.0420 c         1 MOL      0.712994
      3 O1          0.4230    2.4080    3.0670 o         1 MOL     -0.578173
      4 H1          0.8680    1.8460    5.7370 hc        1 MOL      0.130059
      5 H2          0.7880    3.5680    5.2930 hc        1 MOL      0.130059
      6 H3         -0.6090    2.7820    6.0680 hc        1 MOL      0.130059
      7 N1         -1.5710    1.7880    3.9820 n         1 MOL     -0.616347
      8 C3         -2.2680    1.6110    2.6860 c3        1 MOL      0.071732
      9 C4         -2.7610    2.9730    2.1280 c         1 MOL      0.548014
     10 O2         -3.8030    3.3340    2.6140 o         1 MOL     -0.528610
     11 C5         -3.3310    0.5410    2.8560 c3        1 MOL     -0.003883
     12 C6         -3.9900    0.1250    1.5030 c         1 MOL      0.651288
     13 O3         -3.4540    0.4200    0.4220 o         1 MOL     -0.641505
     14 O4         -5.0590   -0.5480    1.6240 o         1 MOL     -0.641505
     15 H4         -2.0880    1.5000    4.8000 hn        1 MOL      0.339971
     16 H5         -1.4840    1.1820    2.0530 h1        1 MOL     -0.041588
     17 H6         -4.1630    0.8480    3.4790 hc        1 MOL      0.012562
     18 H7         -2.9210   -0.3210    3.3780 hc        1 MOL      0.012562
     19 N2         -2.0450    3.6040    1.1800 n         1 MOL     -0.305921
     20 C7         -2.3230    5.0260    0.7930 c3        1 MOL      0.093640
     21 C8         -3.3790    5.1080   -0.2660 c         1 MOL      0.468620
     22 O5         -4.0910    6.1120   -0.2720 o         1 MOL     -0.567926
     23 C9         -1.0630    5.6990    0.2620 c3        1 MOL     -0.388545
     24 C10        -0.4920    6.5060    1.4130 c3        1 MOL      0.476232
     25 C11         0.9130    7.0640    1.1790 c3        1 MOL     -0.213881
     26 C12         1.3940    7.4300    2.6030 c3        1 MOL      0.203685
     27 N3          2.7820    7.9000    2.5420 n4        1 MOL     -0.378360
     28 H8         -1.3380    3.0260    0.7560 hn        1 MOL      0.281975
     29 H9         -2.7170    5.5460    1.6730 h1        1 MOL      0.037861
     30 H10        -1.2640    6.4390   -0.5140 hc        1 MOL      0.094037
     31 H11        -0.3760    4.8990   -0.0130 hc        1 MOL      0.094037
     32 H12        -0.4650    5.8720    2.2960 hc        1 MOL     -0.070820
     33 H13        -1.1440    7.3660    1.5800 hc        1 MOL     -0.070820
     34 H14         0.8100    7.9930    0.6070 hc        1 MOL      0.041604
     35 H15         1.5790    6.3230    0.7510 hc        1 MOL      0.041604
     36 H16         1.2510    6.5420    3.2260 hx        1 MOL      0.033942
     37 H17         0.7470    8.2080    3.0020 hx        1 MOL      0.033942
     38 H18         3.1430    8.1100    3.4530 hn        1 MOL      0.322848
     39 H19         3.4540    7.2930    2.0950 hn        1 MOL      0.322848
     40 H20         2.7340    8.7860    2.0540 hn        1 MOL      0.322848
     41 N4         -3.6430    4.0250   -0.9930 n         1 MOL     -0.220248
     42 C13        -4.7640    3.8910   -1.9440 c3        1 MOL     -0.016291
     43 C14        -5.9230    2.9980   -1.6150 c         1 MOL      0.392687
     44 O6         -6.9060    2.9420   -2.4080 o         1 MOL     -0.499913
     45 C15        -4.2000    3.5500   -3.3480 c3        1 MOL     -0.289656
     46 C16        -3.1050    2.5140   -3.2860 c         1 MOL      0.870564
     47 O7         -3.0460    1.6330   -2.3900 o         1 MOL     -0.724058
     48 O8         -2.2060    2.5890   -4.1240 o         1 MOL     -0.724058
     49 H21        -2.9240    3.3120   -0.9950 hn        1 MOL      0.165190
     50 H22        -5.2280    4.8820   -1.9750 h1        1 MOL      0.109129
     51 H23        -3.6870    4.4570   -3.6410 hc        1 MOL      0.076044
     52 H24        -4.9610    3.2660   -4.0780 hc        1 MOL      0.076044
     53 N5         -5.8660    2.3660   -0.4440 n         1 MOL     -0.098377
     54 C17        -6.9090    1.6750    0.2440 c3        1 MOL     -0.219130
     55 C18        -7.4160    0.2840   -0.3290 c         1 MOL      0.459312
     56 O9         -8.6530    0.0740   -0.5660 o         1 MOL     -0.558490
     57 H25        -4.9750    2.3980    0.0210 hn        1 MOL      0.110660
     58 H26        -7.7900    2.3130    0.2260 h1        1 MOL      0.102891
     59 H27        -6.5270    1.5370    1.2580 h1        1 MOL      0.102891
     60 N6         -6.4150   -0.4900   -0.7130 n         1 MOL     -0.082394
     61 C19        -6.6960   -1.7260   -1.5560 c3        1 MOL     -0.052022
     62 C20        -6.6480   -3.0080   -0.7530 c         1 MOL      0.400892
     63 O10        -6.8430   -4.1920   -1.2500 o         1 MOL     -0.524491
     64 C21        -5.8550   -1.7630   -2.8550 c3        1 MOL     -0.179758
     65 C22        -4.3350   -1.7310   -2.4900 c         1 MOL      0.738235
     66 O11        -3.9860   -2.3010   -1.4860 o         1 MOL     -0.713285
     67 O12        -3.5790   -1.0680   -3.2230 o         1 MOL     -0.713285
     68 H28        -5.4860   -0.2480   -0.3990 hn        1 MOL      0.062253
     69 H29        -7.7380   -1.7160   -1.8800 h1        1 MOL      0.129221
     70 H30        -6.0860   -0.9490   -3.5410 hc        1 MOL      0.065199
     71 H31        -6.0120   -2.7190   -3.3600 hc        1 MOL      0.065199
     72 N7         -6.4250   -2.8390    0.5630 n         1 MOL     -0.298519
     73 C23        -6.2170   -3.9150    1.5570 c3        1 MOL     -0.164045
     74 C24        -4.8840   -4.5410    1.6520 c         1 MOL      0.575049
     75 O13        -4.7220   -5.6240    2.2400 o         1 MOL     -0.568429
     76 H32        -6.0820   -1.9360    0.8580 hn        1 MOL      0.254251
     77 H33        -6.9480   -4.6900    1.3150 h1        1 MOL      0.105562
     78 H34        -6.4150   -3.4610    2.5340 h1        1 MOL      0.105562
     79 N8         -3.8650   -3.8930    0.9980 n         1 MOL     -0.315944
     80 C25        -2.5460   -4.5620    0.7770 c3        1 MOL     -0.108847
     81 C26        -1.4250   -3.5660    0.8470 c         1 MOL      0.543244
     82 O14        -1.5470   -2.4200    0.3420 o         1 MOL     -0.658858
     83 C27        -2.3190   -5.3970   -0.5490 c3        1 MOL      0.451890
     84 C28        -2.9340   -6.8040   -0.4820 c3        1 MOL     -0.446315
     85 O15        -3.0490   -4.9410   -1.7150 oh        1 MOL     -0.644151
     86 H35        -3.9580   -2.9680    0.6140 hn        1 MOL      0.261050
     87 H36        -2.3750   -5.1980    1.6440 h1        1 MOL      0.097287
     88 H37        -1.2910   -5.4840   -0.8940 h1        1 MOL     -0.001450
     89 H38        -3.5040   -4.1250   -1.5050 ho        1 MOL      0.451688
     90 H39        -2.6400   -7.4060   -1.3430 hc        1 MOL      0.109937
     91 H40        -2.5000   -7.2420    0.4110 hc        1 MOL      0.109937
     92 H41        -4.0190   -6.8830   -0.3900 hc        1 MOL      0.109937
     93 N9         -0.3330   -3.9900    1.3800 n         1 MOL     -0.526946
     94 C29         0.9630   -3.2540    1.6300 c3        1 MOL      0.406994
     95 C30         1.9720   -3.7810    0.6230 c         1 MOL      0.255651
     96 O16         2.4070   -4.9310    0.7850 o         1 MOL     -0.510061
     97 C31         1.4060   -3.4840    3.0630 c3        1 MOL     -0.044307
     98 C32         0.4490   -2.9130    4.0910 c3        1 MOL     -0.135134
     99 C33         2.7990   -3.0140    3.3240 c3        1 MOL     -0.009140
    100 C34         0.2040   -1.3860    4.1210 c3        1 MOL     -0.003456
    101 H42        -0.3330   -4.9520    1.6850 hn        1 MOL      0.265795
    102 H43         0.7820   -2.1880    1.4900 h1        1 MOL      0.055532
    103 H44         1.3930   -4.5490    3.2490 hc        1 MOL      0.014489
    104 H45         0.7530   -3.1590    5.1050 hc        1 MOL      0.031172
    105 H46        -0.5390   -3.3590    3.9590 hc        1 MOL      0.031172
    106 H47         2.8710   -1.9720    3.0100 hc        1 MOL      0.002320
    107 H48         3.0700   -3.0640    4.3780 hc        1 MOL      0.002320
    108 H49         3.5520   -3.6170    2.8220 hc        1 MOL      0.002320
    109 H50        -0.2800   -1.1190    3.1800 hc        1 MOL      0.024499
    110 H51        -0.5890   -1.2500    4.8680 hc        1 MOL      0.024499
    111 H52         1.0870   -0.8340    4.4200 hc        1 MOL      0.024499
    112 N10         2.4090   -2.8770   -0.2870 n         1 MOL     -0.055356
    113 C35         3.4700   -3.1720   -1.1420 c3        1 MOL     -0.017125
    114 C36         4.8020   -2.9420   -0.3970 c         1 MOL      0.212915
    115 O17         4.8590   -2.3180    0.6390 o         1 MOL     -0.131167
    116 C37         3.4290   -2.3100   -2.4340 c3        1 MOL      0.065148
    117 C38         2.0000   -2.1920   -3.0990 c3        1 MOL     -0.285668
    118 O18         3.7110   -0.9440   -2.0760 oh        1 MOL     -0.281917
    119 H53         1.9410   -1.9870   -0.2620 hn        1 MOL      0.061585
    120 H54         3.4040   -4.2000   -1.5010 h1        1 MOL      0.093800
    121 H55         4.2140   -2.6610   -3.0940 h1        1 MOL      0.043730
    122 H56         3.6010   -0.4760   -2.9020 ho        1 MOL      0.272973
    123 H57         1.5900   -3.2020   -3.1280 hc        1 MOL      0.100505
    124 H58         1.3810   -1.4870   -2.5410 hc        1 MOL      0.100505
    125 H59         2.1500   -1.8330   -4.1180 hc        1 MOL      0.100505
    126 N11         5.9490   -3.2240   -1.0620 n         1 MOL     -0.265890
    127 C39         7.2830   -2.8830   -0.5160 c3        1 MOL     -0.156748
    128 C40         7.4360   -1.3320   -0.3640 c         1 MOL      0.406652
    129 O19         8.0980   -0.8870    0.6320 o         1 MOL     -0.481283
    130 C41         8.4880   -3.3710   -1.3870 c3        1 MOL      0.350510
    131 C42         8.4800   -4.8840   -1.4640 c3        1 MOL     -0.375554
    132 O20         8.2860   -2.9740   -2.7110 oh        1 MOL     -0.645123
    133 H60         5.9050   -3.7010   -1.9530 hn        1 MOL      0.247033
    134 H61         7.4340   -3.3660    0.4460 h1        1 MOL      0.120523
    135 H62         9.3630   -2.9440   -0.8970 h1        1 MOL      0.054388
    136 H63         8.3870   -3.7950   -3.2100 ho        1 MOL      0.413952
    137 H64         9.3140   -5.2270   -2.0760 hc        1 MOL      0.101993
    138 H65         8.6480   -5.3250   -0.4790 hc        1 MOL      0.101993
    139 H66         7.5910   -5.2110   -2.0090 hc        1 MOL      0.101993
    140 N12         6.7590   -0.5480   -1.2620 n         1 MOL     -0.187694
    141 C43         6.6910    0.9320   -1.0800 c3        1 MOL     -0.062682
    142 C44         5.9720    1.3710    0.1660 c         1 MOL      0.258839
    143 O21         6.4070    2.2530    0.9200 o         1 MOL     -0.530196
    144 C45         6.1330    1.5650   -2.3400 c3        1 MOL     -0.017486
    145 C46         6.4760    3.1070   -2.4790 c3        1 MOL      0.021440
    146 C47         6.0150    3.5340   -3.8990 c3        1 MOL     -0.076628
    147 C48         6.4630    4.9490   -4.2180 c3        1 MOL      0.087976
    148 N13         5.6800    6.0030   -3.4050 n4        1 MOL     -0.521473
    149 H67         6.2180   -0.9020   -2.0330 hn        1 MOL      0.166249
    150 H68         7.6810    1.3930   -0.9890 h1        1 MOL      0.109133
    151 H69         5.0370    1.5450   -2.3440 hc        1 MOL      0.034467
    152 H70         6.5360    1.0160   -3.1880 hc        1 MOL      0.034467
    153 H71         7.5540    3.2300   -2.3690 hc        1 MOL      0.018152
    154 H72         5.8630    3.6670   -1.7680 hc        1 MOL      0.018152
    155 H73         4.9430    3.4750   -4.0530 hc        1 MOL      0.055091
    156 H74         6.5460    2.8790   -4.5920 hc        1 MOL      0.055091
    157 H75         6.3650    5.1390   -5.2880 hx        1 MOL      0.084785
    158 H76         7.5430    5.0720   -4.0830 hx        1 MOL      0.084785
    159 H77         5.8160    6.9020   -3.8380 hn        1 MOL      0.338963
    160 H78         4.7140    5.7060   -3.4910 hn        1 MOL      0.338963
    161 H79         5.9400    6.1040   -2.4330 hn        1 MOL      0.338963
    162 N14         4.8910    0.6860    0.4800 n         1 MOL      0.191618
    163 C49         3.9950    0.9240    1.6160 c3        1 MOL     -0.117752
    164 C50         4.5380    0.4160    2.9530 c         1 MOL      0.488344
    165 O22         4.5670    1.1680    3.9190 o         1 MOL     -0.558554
    166 C51         2.5340    0.4460    1.3060 c3        1 MOL      0.005850
    167 C52         1.8650    1.3260    0.2580 c3        1 MOL     -0.114320
    168 C53         0.5260    0.7710   -0.2190 c         1 MOL      0.679314
    169 O23         0.4440   -0.4620   -0.3010 o         1 MOL     -0.697323
    170 O24        -0.3180    1.5740   -0.6220 o         1 MOL     -0.697323
    171 H80         4.5410    0.1400   -0.2950 hn        1 MOL     -0.095152
    172 H81         3.9960    2.0030    1.7790 h1        1 MOL      0.050565
    173 H82         1.8690    0.3710    2.1700 hc        1 MOL      0.066911
    174 H83         2.5770   -0.6000    1.0000 hc        1 MOL      0.066911
    175 H84         2.5380    1.3440   -0.5990 hc        1 MOL     -0.005103
    176 H85         1.6630    2.3220    0.6590 hc        1 MOL     -0.005103
    177 N15         5.1310   -0.8030    2.9150 n         1 MOL     -0.008398
    178 C54         6.0060   -1.2450    4.0240 c3        1 MOL     -0.295273
    179 H86         5.8040   -2.2920    4.2490 h1        1 MOL      0.105771
    180 H87         7.0500   -1.1330    3.7310 h1        1 MOL      0.105771
    181 H88         5.8090   -0.6390    4.9080 h1        1 MOL      0.105771
    182 H89         4.9950   -1.3910    2.1160 hn        1 MOL     -0.036583
    183 Ca1        -1.9090   -0.4380   -1.4420 Ca        1 MOL      1.761340
    184 O25        -1.0140   -2.5530   -2.7770 oh        1 MOL     -0.824959
    185 H90        -0.5040   -2.7110   -3.5740 ho        1 MOL      0.378451
    186 H91        -1.4850   -3.3710   -2.6250 ho        1 MOL      0.378451
    187 O26        -0.4430    0.5850   -3.7580 oh        1 MOL     -0.824959
    188 H92        -1.0440    1.2990   -3.9350 ho        1 MOL      0.378451
    189 H93         0.3830    0.8670   -4.1560 ho        1 MOL      0.378451
@<TRIPOS>BOND
     1    1    2 1   
     2    1    4 1   
     3    1    5 1   
     4    1    6 1   
     5    2    3 2   
     6    2    7 1   
     7    7    8 1   
     8    7   15 1   
     9    8    9 1   
    10    8   11 1   
    11    8   16 1   
    12    9   10 2   
    13    9   19 1   
    14   11   12 1   
    15   11   17 1   
    16   11   18 1   
    17   12   13 1   
    18   12   14 1   
    19   19   20 1   
    20   19   28 1   
    21   20   21 1   
    22   20   23 1   
    23   20   29 1   
    24   21   22 2   
    25   21   41 1   
    26   23   24 1   
    27   23   30 1   
    28   23   31 1   
    29   24   25 1   
    30   24   32 1   
    31   24   33 1   
    32   25   26 1   
    33   25   34 1   
    34   25   35 1   
    35   26   27 1   
    36   26   36 1   
    37   26   37 1   
    38   27   38 1   
    39   27   39 1   
    40   27   40 1   
    41   41   42 1   
    42   41   49 1   
    43   42   43 1   
    44   42   45 1   
    45   42   50 1   
    46   43   44 2   
    47   43   53 1   
    48   45   46 1   
    49   45   51 1   
    50   45   52 1   
    51   46   47 1   
    52   46   48 1   
    53   53   54 1   
    54   53   57 1   
    55   54   55 1   
    56   54   58 1   
    57   54   59 1   
    58   55   56 2   
    59   55   60 1   
    60   60   61 1   
    61   60   68 1   
    62   61   62 1   
    63   61   64 1   
    64   61   69 1   
    65   62   63 2   
    66   62   72 1   
    67   64   65 1   
    68   64   70 1   
    69   64   71 1   
    70   65   66 1   
    71   65   67 1   
    72   72   73 1   
    73   72   76 1   
    74   73   74 1   
    75   73   77 1   
    76   73   78 1   
    77   74   75 2   
    78   74   79 1   
    79   79   80 1   
    80   79   86 1   
    81   80   81 1   
    82   80   83 1   
    83   80   87 1   
    84   81   82 2   
    85   81   93 1   
    86   83   84 1   
    87   83   85 1   
    88   83   88 1   
    89   84   90 1   
    90   84   91 1   
    91   84   92 1   
    92   85   89 1   
    93   93   94 1   
    94   93  101 1   
    95   94   95 1   
    96   94   97 1   
    97   94  102 1   
    98   95   96 2   
    99   95  112 1   
   100   97   98 1   
   101   97   99 1   
   102   97  103 1   
   103   98  100 1   
   104   98  104 1   
   105   98  105 1   
   106   99  106 1   
   107   99  107 1   
   108   99  108 1   
   109  100  109 1   
   110  100  110 1   
   111  100  111 1   
   112  112  113 1   
   113  112  119 1   
   114  113  114 1   
   115  113  116 1   
   116  113  120 1   
   117  114  115 2   
   118  114  126 1   
   119  116  117 1   
   120  116  118 1   
   121  116  121 1   
   122  117  123 1   
   123  117  124 1   
   124  117  125 1   
   125  118  122 1   
   126  126  127 1   
   127  126  133 1   
   128  127  128 1   
   129  127  130 1   
   130  127  134 1   
   131  128  129 2   
   132  128  140 1   
   133  130  131 1   
   134  130  132 1   
   135  130  135 1   
   136  131  137 1   
   137  131  138 1   
   138  131  139 1   
   139  132  136 1   
   140  140  141 1   
   141  140  149 1   
   142  141  142 1   
   143  141  144 1   
   144  141  150 1   
   145  142  143 2   
   146  142  162 1   
   147  144  145 1   
   148  144  151 1   
   149  144  152 1   
   150  145  146 1   
   151  145  153 1   
   152  145  154 1   
   153  146  147 1   
   154  146  155 1   
   155  146  156 1   
   156  147  148 1   
   157  147  157 1   
   158  147  158 1   
   159  148  159 1   
   160  148  160 1   
   161  148  161 1   
   162  162  163 1   
   163  162  171 1   
   164  163  164 1   
   165  163  166 1   
   166  163  172 1   
   167  164  165 2   
   168  164  177 1   
   169  166  167 1   
   170  166  173 1   
   171  166  174 1   
   172  167  168 1   
   173  167  175 1   
   174  167  176 1   
   175  168  169 1   
   176  168  170 1   
   177  177  178 1   
   178  177  182 1   
   179  178  179 1   
   180  178  180 1   
   181  178  181 1   
   182  184  185 1   
   183  184  186 1   
   184  187  188 1   
   185  187  189 1   
@<TRIPOS>SUBSTRUCTURE
     1 MOL         1 TEMP              0 ****  ****    0 ROOT
