@<TRIPOS>MOLECULE
MOL
  175   173     1     0     0
SMALL
resp


@<TRIPOS>ATOM
      1 C1          0.8190    3.6700    5.4670 c3        1 MOL     -0.372545
      2 C2          0.2470    3.8040    4.0680 c         1 MOL      0.736818
      3 O1          0.9640    4.0790    3.1130 o         1 MOL     -0.563229
      4 H1          1.4330    2.7720    5.5240 hc        1 MOL      0.087759
      5 H2          1.4310    4.5430    5.6950 hc        1 MOL      0.087759
      6 H3          0.0040    3.5990    6.1880 hc        1 MOL      0.087759
      7 N1         -1.0920    3.6300    3.9260 n         1 MOL     -0.623909
      8 C3         -1.7050    3.5080    2.6340 c3        1 MOL      0.002434
      9 C4         -1.9180    4.8290    1.8450 c         1 MOL      0.762476
     10 O2         -2.2460    5.8240    2.4300 o         1 MOL     -0.581398
     11 C5         -3.1000    2.9250    2.8750 c3        1 MOL     -0.359208
     12 C6         -3.7140    2.3690    1.5810 c         1 MOL      0.754084
     13 O3         -4.9100    2.1730    1.6710 o         1 MOL     -0.645166
     14 O4         -3.0540    2.0670    0.5960 o         1 MOL     -0.645166
     15 H4         -1.6400    3.3230    4.7110 hn        1 MOL      0.341569
     16 H5         -1.0710    2.8680    2.0110 h1        1 MOL      0.135435
     17 H6         -3.7320    3.7420    3.2310 hc        1 MOL      0.081972
     18 H7         -3.0250    2.1490    3.6350 hc        1 MOL      0.081972
     19 N2         -1.8700    4.8000    0.4990 n         1 MOL     -0.714448
     20 C7         -2.2460    5.7900   -0.4760 c3        1 MOL      0.452149
     21 C8         -3.2880    5.2690   -1.5330 c         1 MOL      0.380174
     22 O5         -3.8280    6.1710   -2.2570 o         1 MOL     -0.586136
     23 C9         -1.0240    6.4780   -1.0420 c3        1 MOL     -0.260075
     24 H8         -1.8660    3.8850    0.0580 hn        1 MOL      0.317215
     25 H9         -2.7890    6.4890    0.1500 h1        1 MOL     -0.014637
     26 H10        -1.2680    7.0000   -1.9770 hc        1 MOL      0.054702
     27 H11        -0.7500    7.3100   -0.3910 hc        1 MOL      0.054702
     28 H12        -0.2510    5.7500   -1.2880 hc        1 MOL      0.054702
     29 N3         -3.6780    3.9920   -1.5430 n         1 MOL     -0.336558
     30 C10        -4.5890    3.5210   -2.6170 c3        1 MOL      0.267444
     31 C11        -5.8970    2.9610   -2.1530 c         1 MOL      0.348685
     32 O6         -6.8140    3.0290   -3.0070 o         1 MOL     -0.549559
     33 C12        -3.8770    2.4980   -3.4860 c3        1 MOL     -0.355681
     34 C13        -3.2460    1.4620   -2.7390 c         1 MOL      0.785321
     35 O7         -2.0610    1.2140   -2.9760 o         1 MOL     -0.704757
     36 O8         -3.7900    0.9310   -1.7540 o         1 MOL     -0.704757
     37 H13        -3.2520    3.2930   -0.9630 hn        1 MOL      0.256459
     38 H14        -4.9100    4.3600   -3.2300 h1        1 MOL      0.061874
     39 H15        -3.1530    3.0520   -4.0710 hc        1 MOL      0.075509
     40 H16        -4.6660    2.1050   -4.1290 hc        1 MOL      0.075509
     41 N4         -6.1020    2.5220   -0.8800 n         1 MOL     -0.217981
     42 C14        -7.3330    1.7740   -0.4170 c3        1 MOL     -0.120859
     43 C15        -7.3980    0.3700   -0.9380 c         1 MOL      0.503688
     44 O9         -8.4990   -0.1030   -1.0430 o         1 MOL     -0.598309
     45 H17        -5.2680    2.3750   -0.3320 hn        1 MOL      0.055341
     46 H18        -8.1700    2.3730   -0.7750 h1        1 MOL      0.104025
     47 H19        -7.4200    1.7180    0.6690 h1        1 MOL      0.104025
     48 N5         -6.2690   -0.3230   -1.2930 n         1 MOL     -0.104274
     49 C16        -6.3510   -1.5820   -2.0610 c3        1 MOL     -0.129740
     50 C17        -6.4540   -2.8020   -1.1180 c         1 MOL      0.423717
     51 O10        -6.3780   -3.9620   -1.5970 o         1 MOL     -0.531638
     52 C18        -5.1750   -1.6730   -3.0510 c3        1 MOL     -0.077232
     53 C19        -3.7890   -1.9080   -2.4410 c         1 MOL      0.373835
     54 N6         -2.7580   -1.7780   -3.2810 n         1 MOL     -0.650248
     55 O11        -3.6440   -2.2460   -1.2810 o         1 MOL     -0.168170
     56 H20        -5.3310   -0.0480   -1.0480 hn        1 MOL      0.116970
     57 H21        -7.2410   -1.7080   -2.6760 h1        1 MOL      0.127317
     58 H22        -5.1070   -0.7600   -3.6360 hc        1 MOL      0.052588
     59 H23        -5.3800   -2.4270   -3.8230 hc        1 MOL      0.052588
     60 H24        -2.9290   -1.4170   -4.2080 hn        1 MOL      0.330532
     61 H25        -1.8140   -2.0250   -3.0090 hn        1 MOL      0.330532
     62 N7         -6.5280   -2.6040    0.2010 n         1 MOL     -0.244610
     63 C20        -6.6200   -3.6270    1.2130 c3        1 MOL     -0.183552
     64 C21        -5.3330   -4.4090    1.5930 c         1 MOL      0.518238
     65 O12        -5.3830   -5.3080    2.3670 o         1 MOL     -0.555364
     66 H26        -6.3710   -1.6840    0.5680 hn        1 MOL      0.224594
     67 H27        -7.4970   -4.1940    0.8780 h1        1 MOL      0.092703
     68 H28        -7.0020   -3.0670    2.0690 h1        1 MOL      0.092703
     69 N8         -4.1960   -4.0450    0.9100 n         1 MOL      0.094649
     70 C22        -2.9340   -4.7120    1.1670 c3        1 MOL     -0.661497
     71 C23        -1.8020   -3.6710    1.3660 c         1 MOL      0.999015
     72 O13        -1.8730   -2.5320    0.8700 o         1 MOL     -0.806816
     73 C24        -2.5760   -5.6510    0.0350 c3        1 MOL      0.694447
     74 C25        -3.2350   -7.0260    0.1760 c3        1 MOL     -0.433740
     75 O14        -2.8000   -5.0630   -1.2070 oh        1 MOL     -0.627460
     76 H29        -4.1620   -3.2520    0.2810 hn        1 MOL     -0.041966
     77 H30        -2.9620   -5.3120    2.0770 h1        1 MOL      0.159624
     78 H31        -1.5110   -5.8740   -0.0550 h1        1 MOL     -0.051925
     79 H32        -2.4960   -4.1520   -1.1730 ho        1 MOL      0.322036
     80 H33        -2.9390   -7.5680   -0.7180 hc        1 MOL      0.099410
     81 H34        -2.6960   -7.5860    0.9320 hc        1 MOL      0.099410
     82 H35        -4.3160   -6.8930    0.3310 hc        1 MOL      0.099410
     83 N9         -0.7470   -3.9480    2.0980 n         1 MOL     -0.834640
     84 C26         0.4260   -3.1240    1.9210 c3        1 MOL      0.150437
     85 C27         1.1520   -3.3050    0.5240 c         1 MOL      0.415363
     86 O15         1.2760   -4.4210    0.0730 o         1 MOL     -0.564003
     87 C28         1.3840   -3.4010    3.1500 c3        1 MOL      0.161437
     88 C29         0.6820   -3.1110    4.4470 c3        1 MOL     -0.014596
     89 C30         2.6500   -2.5300    3.0190 c3        1 MOL     -0.334761
     90 C31         1.4300   -3.4220    5.6900 c3        1 MOL     -0.008508
     91 H36        -0.7450   -4.8040    2.6330 hn        1 MOL      0.374380
     92 H37         0.0890   -2.0910    1.9510 h1        1 MOL      0.080567
     93 H38         1.6280   -4.4640    3.1920 hc        1 MOL     -0.016200
     94 H39        -0.1610   -3.7930    4.4660 hc        1 MOL     -0.002301
     95 H40         0.4030   -2.0680    4.3260 hc        1 MOL     -0.002301
     96 H41         3.2570   -2.8690    2.1770 hc        1 MOL      0.062934
     97 H42         2.2940   -1.5210    2.8440 hc        1 MOL      0.062934
     98 H43         3.2710   -2.4670    3.9150 hc        1 MOL      0.062934
     99 H44         0.7930   -3.1780    6.5320 hc        1 MOL      0.001246
    100 H45         1.5500   -4.4770    5.9360 hc        1 MOL      0.001246
    101 H46         2.3630   -2.8820    5.8740 hc        1 MOL      0.001246
    102 N10         1.7070   -2.2750   -0.0210 n         1 MOL     -0.073303
    103 C32         2.6200   -2.1400   -1.1440 c3        1 MOL     -0.013709
    104 C33         4.0340   -1.5910   -0.7400 c         1 MOL      0.432645
    105 O16         4.2500   -1.1430    0.3620 o         1 MOL     -0.322496
    106 C34         1.9650   -1.1660   -2.2020 c3        1 MOL     -0.202203
    107 C35         0.5900   -1.6020   -2.6870 c         1 MOL      0.673089
    108 O17        -0.3730   -1.3670   -1.9050 o         1 MOL     -0.656936
    109 O18         0.4440   -1.9380   -3.8720 o         1 MOL     -0.656936
    110 H47         1.5560   -1.4180    0.5010 hn        1 MOL      0.135113
    111 H48         2.7910   -3.1370   -1.5400 h1        1 MOL      0.058703
    112 H49         2.6670   -1.0470   -3.0180 hc        1 MOL      0.047239
    113 H50         1.8350   -0.2160   -1.6770 hc        1 MOL      0.047239
    114 N11         4.9660   -1.8060   -1.6820 n         1 MOL     -0.599825
    115 C36         6.4040   -1.5050   -1.4840 c3        1 MOL      0.327452
    116 C37         6.7090   -0.0810   -1.0410 c         1 MOL      0.291440
    117 O19         7.5170    0.0710   -0.1090 o         1 MOL     -0.504123
    118 C38         7.2670   -1.7560   -2.7710 c3        1 MOL     -0.205712
    119 C39         8.7580   -1.5330   -2.5550 ca        1 MOL      0.056526
    120 C40         9.4860   -0.4740   -3.0970 ca        1 MOL     -0.136207
    121 C41         9.5280   -2.4690   -1.7840 ca        1 MOL     -0.136207
    122 C42        10.8770   -0.4490   -2.9770 ca        1 MOL     -0.071686
    123 C43        10.9650   -2.4990   -1.7060 ca        1 MOL     -0.071686
    124 C44        11.5860   -1.4030   -2.3070 ca        1 MOL     -0.171865
    125 H51         4.8000   -2.2900   -2.5580 hn        1 MOL      0.337111
    126 H52         6.8580   -2.1600   -0.7340 h1        1 MOL      0.046784
    127 H53         7.0430   -1.2190   -3.6930 hc        1 MOL      0.069724
    128 H54         7.0340   -2.7930   -3.0390 hc        1 MOL      0.069724
    129 H55         8.8970    0.3220   -3.5460 ha        1 MOL      0.092717
    130 H56         8.9310   -3.2450   -1.3370 ha        1 MOL      0.092717
    131 H57        11.3840    0.3920   -3.4200 ha        1 MOL      0.099426
    132 H58        11.5590   -3.2260   -1.1580 ha        1 MOL      0.099426
    133 H59        12.6020   -1.0960   -2.0990 ha        1 MOL      0.116163
    134 N12         6.1780    0.9880   -1.6430 n         1 MOL     -0.054092
    135 C45         6.5700    2.4150   -1.1870 c3        1 MOL      0.071378
    136 C46         6.0710    2.6590    0.2590 c         1 MOL      0.273261
    137 O20         6.5410    3.5280    0.9760 o         1 MOL     -0.470278
    138 C47         5.8800    3.3790   -2.1780 c3        1 MOL     -0.186553
    139 C48         5.4310    2.4380   -3.3430 c3        1 MOL      0.013719
    140 C49         5.2320    1.0560   -2.7160 c3        1 MOL     -0.092096
    141 H60         7.6500    2.5260   -1.1830 h1        1 MOL      0.077362
    142 H61         4.9500    3.8050   -1.7880 hc        1 MOL      0.085864
    143 H62         6.5800    4.1610   -2.4870 hc        1 MOL      0.085864
    144 H63         4.5960    2.7910   -3.9530 hc        1 MOL      0.026387
    145 H64         6.2190    2.3500   -4.0920 hc        1 MOL      0.026387
    146 H65         4.2730    1.1100   -2.1990 h1        1 MOL      0.062708
    147 H66         5.3140    0.1830   -3.3740 h1        1 MOL      0.062708
    148 N13         4.9470    1.9550    0.6860 n         1 MOL     -0.020507
    149 C50         4.2870    1.9620    2.0060 c3        1 MOL     -0.299985
    150 C51         5.0560    1.2620    3.1610 c         1 MOL      0.522757
    151 O21         5.1810    1.7350    4.3020 o         1 MOL     -0.557478
    152 C52         2.8380    1.3910    1.9770 c3        1 MOL      0.069865
    153 C53         2.1300    1.8540    0.7000 c3        1 MOL     -0.076866
    154 C54         0.6640    1.3380    0.6530 c         1 MOL      0.624671
    155 O22        -0.1710    1.9510   -0.0510 o         1 MOL     -0.715159
    156 O23         0.3270    0.2260    1.0990 o         1 MOL     -0.715159
    157 H67         4.4530    1.4490   -0.0320 hn        1 MOL      0.132621
    158 H68         4.1320    3.0090    2.2440 h1        1 MOL      0.133424
    159 H69         2.2190    1.7360    2.8170 hc        1 MOL      0.018284
    160 H70         2.9870    0.3150    1.9080 hc        1 MOL      0.018284
    161 H71         2.8040    1.5150   -0.0780 hc        1 MOL      0.047084
    162 H72         2.0720    2.9450    0.6720 hc        1 MOL      0.047084
    163 N14         5.6080    0.0640    2.8840 n         1 MOL     -0.016025
    164 C55         6.3050   -0.7510    3.8340 c3        1 MOL     -0.428836
    165 H73         6.4290   -1.7550    3.4280 h1        1 MOL      0.134188
    166 H74         7.2850   -0.3180    4.0350 h1        1 MOL      0.134188
    167 H75         5.7330   -0.8010    4.7590 h1        1 MOL      0.134188
    168 H76         5.5670   -0.2990    1.9490 hn        1 MOL      0.087697
    169 Ca1        -1.9850   -0.1140   -0.3480 Ca        1 MOL      1.681714
    170 O24        -1.8090    0.0050    2.4010 oh        1 MOL     -0.713058
    171 H77        -0.8580    0.0450    2.3190 ho        1 MOL      0.356609
    172 H78        -1.9750    0.1700    3.3300 ho        1 MOL      0.356609
    173 O25        -4.3810   -0.3480    0.7750 oh        1 MOL     -0.713058
    174 H79        -4.5120    0.5960    0.9200 ho        1 MOL      0.356609
    175 H80        -4.4480   -0.7320    1.6450 ho        1 MOL      0.356609
@<TRIPOS>BOND
     1    1    2 1   
     2    1    4 1   
     3    1    5 1   
     4    1    6 1   
     5    2    3 2   
     6    2    7 1   
     7    7    8 1   
     8    7   15 1   
     9    8    9 1   
    10    8   11 1   
    11    8   16 1   
    12    9   10 2   
    13    9   19 1   
    14   11   12 1   
    15   11   17 1   
    16   11   18 1   
    17   12   13 1   
    18   12   14 1   
    19   19   20 1   
    20   19   24 1   
    21   20   21 1   
    22   20   23 1   
    23   20   25 1   
    24   21   22 2   
    25   21   29 1   
    26   23   26 1   
    27   23   27 1   
    28   23   28 1   
    29   29   30 1   
    30   29   37 1   
    31   30   31 1   
    32   30   33 1   
    33   30   38 1   
    34   31   32 2   
    35   31   41 1   
    36   33   34 1   
    37   33   39 1   
    38   33   40 1   
    39   34   35 1   
    40   34   36 1   
    41   41   42 1   
    42   41   45 1   
    43   42   43 1   
    44   42   46 1   
    45   42   47 1   
    46   43   44 2   
    47   43   48 1   
    48   48   49 1   
    49   48   56 1   
    50   49   50 1   
    51   49   52 1   
    52   49   57 1   
    53   50   51 2   
    54   50   62 1   
    55   52   53 1   
    56   52   58 1   
    57   52   59 1   
    58   53   54 1   
    59   53   55 2   
    60   54   60 1   
    61   54   61 1   
    62   62   63 1   
    63   62   66 1   
    64   63   64 1   
    65   63   67 1   
    66   63   68 1   
    67   64   65 2   
    68   64   69 1   
    69   69   70 1   
    70   69   76 1   
    71   70   71 1   
    72   70   73 1   
    73   70   77 1   
    74   71   72 2   
    75   71   83 1   
    76   73   74 1   
    77   73   75 1   
    78   73   78 1   
    79   74   80 1   
    80   74   81 1   
    81   74   82 1   
    82   75   79 1   
    83   83   84 1   
    84   83   91 1   
    85   84   85 1   
    86   84   87 1   
    87   84   92 1   
    88   85   86 2   
    89   85  102 1   
    90   87   88 1   
    91   87   89 1   
    92   87   93 1   
    93   88   90 1   
    94   88   94 1   
    95   88   95 1   
    96   89   96 1   
    97   89   97 1   
    98   89   98 1   
    99   90   99 1   
   100   90  100 1   
   101   90  101 1   
   102  102  103 1   
   103  102  110 1   
   104  103  104 1   
   105  103  106 1   
   106  103  111 1   
   107  104  105 2   
   108  104  114 1   
   109  106  107 1   
   110  106  112 1   
   111  106  113 1   
   112  107  108 1   
   113  107  109 1   
   114  114  115 1   
   115  114  125 1   
   116  115  116 1   
   117  115  118 1   
   118  115  126 1   
   119  116  117 2   
   120  116  134 1   
   121  118  119 1   
   122  118  127 1   
   123  118  128 1   
   124  119  120 ar  
   125  119  121 ar  
   126  120  122 ar  
   127  120  129 1   
   128  121  123 ar  
   129  121  130 1   
   130  122  124 ar  
   131  122  131 1   
   132  123  124 ar  
   133  123  132 1   
   134  124  133 1   
   135  134  135 1   
   136  134  140 1   
   137  135  136 1   
   138  135  138 1   
   139  135  141 1   
   140  136  137 2   
   141  136  148 1   
   142  138  139 1   
   143  138  142 1   
   144  138  143 1   
   145  139  140 1   
   146  139  144 1   
   147  139  145 1   
   148  140  146 1   
   149  140  147 1   
   150  148  149 1   
   151  148  157 1   
   152  149  150 1   
   153  149  152 1   
   154  149  158 1   
   155  150  151 2   
   156  150  163 1   
   157  152  153 1   
   158  152  159 1   
   159  152  160 1   
   160  153  154 1   
   161  153  161 1   
   162  153  162 1   
   163  154  155 1   
   164  154  156 1   
   165  163  164 1   
   166  163  168 1   
   167  164  165 1   
   168  164  166 1   
   169  164  167 1   
   170  170  171 1   
   171  170  172 1   
   172  173  174 1   
   173  173  175 1   
@<TRIPOS>SUBSTRUCTURE
     1 MOL         1 TEMP              0 ****  ****    0 ROOT
